<?xml version="1.0" encoding="UTF-8"?>

<!-- generated on 2023-07-04 17:41:26 by Eclipse SUMO netconvert Version 1.18.0
<configuration xmlns:xsi="http://www.w3.org/2001/XMLSchema-instance" xsi:noNamespaceSchemaLocation="http://sumo.dlr.de/xsd/netconvertConfiguration.xsd">

    <input>
        <type-files value="osmNetconvert.typ.xml"/>
        <osm-files value="map.osm"/>
    </input>

    <output>
        <output-file value="test.net.xml"/>
    </output>

    <projection>
        <proj.utm value="true"/>
    </projection>

    <report>
        <xml-validation value="never"/>
    </report>

</configuration>
-->

<net version="1.16" junctionCornerDetail="5" limitTurnSpeed="5.50" xmlns:xsi="http://www.w3.org/2001/XMLSchema-instance" xsi:noNamespaceSchemaLocation="http://sumo.dlr.de/xsd/net_file.xsd">

    <location netOffset="-587243.29,-6092756.55" convBoundary="0.00,0.00,2409.30,2351.30" origBoundary="-1.636932,54.973836,-1.597640,54.994842" projParameter="+proj=utm +zone=30 +ellps=WGS84 +datum=WGS84 +units=m +no_defs"/>

    <type id="highway.cycleway" priority="1" numLanes="1" speed="5.56" allow="bicycle" oneway="0" width="2.00"/>
    <type id="highway.footway" priority="1" numLanes="1" speed="2.78" allow="pedestrian" oneway="1" width="2.00"/>
    <type id="highway.motorway" priority="14" numLanes="2" speed="39.44" allow="private emergency authority army vip passenger hov taxi bus coach delivery truck trailer motorcycle evehicle custom1 custom2" oneway="1"/>
    <type id="highway.motorway_link" priority="9" numLanes="1" speed="22.22" allow="private emergency authority army vip passenger hov taxi bus coach delivery truck trailer motorcycle evehicle custom1 custom2" oneway="1"/>
    <type id="highway.path" priority="1" numLanes="1" speed="5.56" allow="pedestrian bicycle" oneway="0" width="2.00"/>
    <type id="highway.pedestrian" priority="1" numLanes="1" speed="2.78" allow="pedestrian" oneway="1" width="2.00"/>
    <type id="highway.primary" priority="12" numLanes="2" speed="27.78" disallow="tram rail_urban rail rail_electric rail_fast ship" oneway="0"/>
    <type id="highway.residential" priority="3" numLanes="1" speed="13.89" disallow="tram rail_urban rail rail_electric rail_fast ship" oneway="0"/>
    <type id="highway.secondary" priority="11" numLanes="1" speed="27.78" disallow="tram rail_urban rail rail_electric rail_fast ship" oneway="0"/>
    <type id="highway.secondary_link" priority="6" numLanes="1" speed="22.22" disallow="tram rail_urban rail rail_electric rail_fast ship" oneway="0"/>
    <type id="highway.service" priority="1" numLanes="1" speed="5.56" allow="pedestrian delivery bicycle" oneway="0"/>
    <type id="highway.steps" priority="1" numLanes="1" speed="1.39" allow="pedestrian" oneway="1" width="2.00"/>
    <type id="highway.tertiary" priority="10" numLanes="1" speed="22.22" disallow="tram rail_urban rail rail_electric rail_fast ship" oneway="0"/>
    <type id="highway.trunk" priority="13" numLanes="2" speed="27.78" disallow="pedestrian bicycle tram rail_urban rail rail_electric rail_fast ship" oneway="0"/>
    <type id="highway.trunk_link" priority="8" numLanes="1" speed="22.22" disallow="pedestrian bicycle tram rail_urban rail rail_electric rail_fast ship" oneway="0"/>
    <type id="highway.unclassified" priority="4" numLanes="1" speed="13.89" disallow="tram rail_urban rail rail_electric rail_fast ship" oneway="0"/>
    <type id="railway.light_rail" priority="19" numLanes="1" speed="27.78" allow="rail_urban" oneway="1"/>

    <edge id=":10152413738_0" function="internal">
        <lane id=":10152413738_0_0" index="0" allow="rail_urban" speed="8.33" length="0.10" shape="2062.57,850.43 2062.57,850.43"/>
    </edge>
    <edge id=":10177807997_0" function="internal">
        <lane id=":10177807997_0_0" index="0" allow="pedestrian bicycle" speed="5.56" length="6.13" width="2.00" shape="1899.19,377.19 1895.09,381.74"/>
    </edge>
    <edge id=":10177807997_1" function="internal">
        <lane id=":10177807997_1_0" index="0" allow="pedestrian bicycle" speed="2.89" length="2.42" width="2.00" shape="1899.19,377.19 1898.32,377.42 1897.78,377.28 1897.57,376.76 1897.62,376.37"/>
    </edge>
    <edge id=":10177807997_4" function="internal">
        <lane id=":10177807997_4_0" index="0" allow="pedestrian bicycle" speed="2.89" length="0.50" width="2.00" shape="1897.62,376.37 1897.69,375.87"/>
    </edge>
    <edge id=":10177807997_2" function="internal">
        <lane id=":10177807997_2_0" index="0" allow="pedestrian bicycle" speed="5.56" length="6.07" width="2.00" shape="1893.62,380.38 1897.69,375.87"/>
    </edge>
    <edge id=":10177807997_3" function="internal">
        <lane id=":10177807997_3_0" index="0" allow="pedestrian bicycle" speed="2.89" length="0.79" width="2.00" shape="1893.62,380.38 1894.39,380.20"/>
    </edge>
    <edge id=":10177807997_5" function="internal">
        <lane id=":10177807997_5_0" index="0" allow="pedestrian bicycle" speed="2.89" length="2.13" width="2.00" shape="1894.39,380.20 1894.50,380.17 1895.04,380.33 1895.23,380.85 1895.09,381.74"/>
    </edge>
    <edge id=":10211284508_0" function="internal">
        <lane id=":10211284508_0_0" index="0" allow="pedestrian delivery bicycle" speed="3.65" length="4.67" shape="858.56,797.12 859.94,797.53 860.57,798.17 860.42,799.05 859.52,800.18"/>
    </edge>
    <edge id=":10211284509_0" function="internal">
        <lane id=":10211284509_0_0" index="0" allow="pedestrian delivery bicycle" speed="5.56" length="9.51" shape="845.24,806.96 844.12,797.51"/>
    </edge>
    <edge id=":10211284509_1" function="internal">
        <lane id=":10211284509_1_0" index="0" allow="pedestrian delivery bicycle" speed="5.56" length="10.31" shape="845.24,806.96 845.36,804.46 846.35,802.38 848.23,800.73 850.98,799.51"/>
    </edge>
    <edge id=":10211284509_2" function="internal">
        <lane id=":10211284509_2_0" index="0" allow="pedestrian delivery bicycle" speed="3.65" length="4.67" shape="845.24,806.96 845.89,805.67 846.64,805.18 847.48,805.49 848.42,806.58"/>
    </edge>
    <edge id=":10211284509_3" function="internal">
        <lane id=":10211284509_3_0" index="0" allow="pedestrian delivery bicycle" speed="5.56" length="5.84" shape="851.94,802.57 850.28,803.27 849.13,804.18 848.51,805.28 848.42,806.58"/>
    </edge>
    <edge id=":10211284509_4" function="internal">
        <lane id=":10211284509_4_0" index="0" allow="pedestrian delivery bicycle" speed="5.56" length="11.14" shape="851.94,802.57 848.84,803.07 846.51,802.40 844.93,800.55 844.12,797.51"/>
    </edge>
    <edge id=":10211284509_5" function="internal">
        <lane id=":10211284509_5_0" index="0" allow="pedestrian delivery bicycle" speed="3.65" length="4.67" shape="851.94,802.57 850.56,802.16 849.93,801.52 850.08,800.64 850.98,799.51"/>
    </edge>
    <edge id=":10211284509_6" function="internal">
        <lane id=":10211284509_6_0" index="0" allow="pedestrian delivery bicycle" speed="4.86" length="5.24" shape="847.30,797.14 847.68,798.56 848.42,799.44 849.52,799.75 850.98,799.51"/>
    </edge>
    <edge id=":10211284509_7" function="internal">
        <lane id=":10211284509_7_0" index="0" allow="pedestrian delivery bicycle" speed="5.56" length="9.51" shape="847.30,797.14 848.42,806.58"/>
    </edge>
    <edge id=":10211284509_8" function="internal">
        <lane id=":10211284509_8_0" index="0" allow="pedestrian delivery bicycle" speed="3.65" length="4.67" shape="847.30,797.14 846.65,798.42 845.90,798.91 845.06,798.61 844.12,797.51"/>
    </edge>
    <edge id=":10211284510_0" function="internal">
        <lane id=":10211284510_0_0" index="0" allow="pedestrian delivery bicycle" speed="3.65" length="4.67" shape="853.12,781.30 854.54,781.52 855.24,782.08 855.21,782.98 854.45,784.21"/>
    </edge>
    <edge id=":10211284511_0" function="internal">
        <lane id=":10211284511_0_0" index="0" allow="pedestrian delivery bicycle" speed="5.56" length="9.36" shape="842.55,792.90 838.93,784.27"/>
    </edge>
    <edge id=":10211284511_1" function="internal">
        <lane id=":10211284511_1_0" index="0" allow="pedestrian delivery bicycle" speed="5.56" length="10.17" shape="842.55,792.90 841.87,790.26 842.21,787.99 843.57,786.10 845.95,784.59"/>
    </edge>
    <edge id=":10211284511_2" function="internal">
        <lane id=":10211284511_2_0" index="0" allow="pedestrian delivery bicycle" speed="3.65" length="4.67" shape="842.55,792.90 842.82,791.49 843.41,790.81 844.30,790.87 845.50,791.66"/>
    </edge>
    <edge id=":10211284511_3" function="internal">
        <lane id=":10211284511_3_0" index="0" allow="pedestrian delivery bicycle" speed="5.15" length="5.13" shape="847.29,787.49 846.07,788.26 845.36,789.22 845.17,790.35 845.50,791.66"/>
    </edge>
    <edge id=":10211284511_4" function="internal">
        <lane id=":10211284511_4_0" index="0" allow="pedestrian delivery bicycle" speed="5.56" length="10.29" shape="847.29,787.49 844.56,788.30 842.26,788.04 840.39,786.69 838.93,784.27"/>
    </edge>
    <edge id=":10211284511_5" function="internal">
        <lane id=":10211284511_5_0" index="0" allow="pedestrian delivery bicycle" speed="3.65" length="4.67" shape="847.29,787.49 845.86,787.27 845.17,786.71 845.20,785.81 845.95,784.59"/>
    </edge>
    <edge id=":10211284511_6" function="internal">
        <lane id=":10211284511_6_0" index="0" allow="pedestrian delivery bicycle" speed="4.53" length="5.60" shape="842.26,782.98 842.26,784.42 842.88,785.17 844.11,785.23 845.95,784.59"/>
    </edge>
    <edge id=":10211284511_7" function="internal">
        <lane id=":10211284511_7_0" index="0" allow="pedestrian delivery bicycle" speed="5.56" length="9.57" shape="842.26,782.98 842.19,785.66 842.92,787.43 844.13,789.15 845.50,791.66"/>
    </edge>
    <edge id=":10211284511_8" function="internal">
        <lane id=":10211284511_8_0" index="0" allow="pedestrian delivery bicycle" speed="4.10" length="5.22" shape="842.26,782.98 841.92,784.55 841.25,785.29 840.25,785.20 838.93,784.27"/>
    </edge>
    <edge id=":10211284512_0" function="internal">
        <lane id=":10211284512_0_0" index="0" allow="pedestrian delivery bicycle" speed="3.65" length="4.67" shape="866.85,813.25 868.26,813.54 868.93,814.14 868.85,815.03 868.04,816.22"/>
    </edge>
    <edge id=":10211284513_0" function="internal">
        <lane id=":10211284513_0_0" index="0" allow="pedestrian delivery bicycle" speed="5.56" length="9.63" shape="847.51,826.36 846.39,816.80"/>
    </edge>
    <edge id=":10211284513_1" function="internal">
        <lane id=":10211284513_1_0" index="0" allow="pedestrian delivery bicycle" speed="5.56" length="10.44" shape="847.51,826.36 847.65,823.96 848.66,821.87 850.55,820.10 853.32,818.66"/>
    </edge>
    <edge id=":10211284513_2" function="internal">
        <lane id=":10211284513_2_0" index="0" allow="pedestrian delivery bicycle" speed="3.65" length="4.67" shape="847.51,826.36 848.16,825.08 848.91,824.59 849.75,824.89 850.69,825.99"/>
    </edge>
    <edge id=":10211284513_3" function="internal">
        <lane id=":10211284513_3_0" index="0" allow="pedestrian delivery bicycle" speed="5.56" length="6.24" shape="854.51,821.63 852.72,822.52 851.48,823.55 850.81,824.70 850.69,825.99"/>
    </edge>
    <edge id=":10211284513_4" function="internal">
        <lane id=":10211284513_4_0" index="0" allow="pedestrian delivery bicycle" speed="5.56" length="11.58" shape="854.51,821.63 851.29,822.41 848.87,821.87 847.24,819.99 846.39,816.80"/>
    </edge>
    <edge id=":10211284513_5" function="internal">
        <lane id=":10211284513_5_0" index="0" allow="pedestrian delivery bicycle" speed="3.65" length="4.67" shape="854.51,821.63 853.10,821.33 852.43,820.74 852.50,819.85 853.32,818.66"/>
    </edge>
    <edge id=":10211284513_6" function="internal">
        <lane id=":10211284513_6_0" index="0" allow="pedestrian delivery bicycle" speed="4.81" length="5.35" shape="849.57,816.43 849.96,817.90 850.72,818.77 851.83,819.02 853.32,818.66"/>
    </edge>
    <edge id=":10211284513_7" function="internal">
        <lane id=":10211284513_7_0" index="0" allow="pedestrian delivery bicycle" speed="5.56" length="9.63" shape="849.57,816.43 850.69,825.99"/>
    </edge>
    <edge id=":10211284513_8" function="internal">
        <lane id=":10211284513_8_0" index="0" allow="pedestrian delivery bicycle" speed="3.65" length="4.67" shape="849.57,816.43 848.91,817.71 848.17,818.20 847.32,817.90 846.39,816.80"/>
    </edge>
    <edge id=":10224042708_0" function="internal">
        <lane id=":10224042708_0_0" index="0" allow="rail_urban" speed="16.67" length="0.10" shape="1491.95,152.16 1491.95,152.16"/>
    </edge>
    <edge id=":10224042709_0" function="internal">
        <lane id=":10224042709_0_0" index="0" allow="rail_urban" speed="16.67" length="0.10" shape="1475.04,230.21 1475.04,230.21"/>
    </edge>
    <edge id=":10224042710_0" function="internal">
        <lane id=":10224042710_0_0" index="0" allow="rail_urban" speed="16.67" length="0.30" shape="1450.29,377.29 1450.30,377.59"/>
    </edge>
    <edge id=":10224042711_0" function="internal">
        <lane id=":10224042711_0_0" index="0" allow="rail_urban" speed="18.06" length="0.30" shape="1488.90,499.95 1489.03,500.22"/>
    </edge>
    <edge id=":10224042712_0" function="internal">
        <lane id=":10224042712_0_0" index="0" allow="rail_urban" speed="18.06" length="0.30" shape="1574.61,658.18 1574.76,658.44"/>
    </edge>
    <edge id=":10224046633_0" function="internal">
        <lane id=":10224046633_0_0" index="0" allow="rail_urban" speed="18.06" length="0.10" shape="1482.17,226.42 1482.17,226.42"/>
    </edge>
    <edge id=":10224046634_0" function="internal">
        <lane id=":10224046634_0_0" index="0" allow="rail_urban" speed="18.06" length="0.30" shape="1467.18,364.31 1467.14,364.01"/>
    </edge>
    <edge id=":10224046635_0" function="internal">
        <lane id=":10224046635_0_0" index="0" allow="rail_urban" speed="18.06" length="0.28" shape="1517.13,504.84 1517.01,504.58"/>
    </edge>
    <edge id=":10224046636_0" function="internal">
        <lane id=":10224046636_0_0" index="0" allow="rail_urban" speed="18.06" length="0.10" shape="1594.40,643.60 1594.40,643.60"/>
    </edge>
    <edge id=":10224046638_0" function="internal">
        <lane id=":10224046638_0_0" index="0" allow="rail_urban" speed="18.06" length="0.10" shape="1633.20,726.33 1633.20,726.33"/>
    </edge>
    <edge id=":10224046639_0" function="internal">
        <lane id=":10224046639_0_0" index="0" allow="rail_urban" speed="18.06" length="0.25" shape="1923.32,873.97 1923.17,873.76"/>
    </edge>
    <edge id=":10224046640_0" function="internal">
        <lane id=":10224046640_0_0" index="0" allow="rail_urban" speed="18.06" length="0.30" shape="1924.66,884.51 1924.84,884.76"/>
    </edge>
    <edge id=":10224046641_0" function="internal">
        <lane id=":10224046641_0_0" index="0" allow="rail_urban" speed="18.06" length="0.10" shape="1636.41,686.37 1636.41,686.37"/>
    </edge>
    <edge id=":10224046643_0" function="internal">
        <lane id=":10224046643_0_0" index="0" allow="rail_urban" speed="18.06" length="0.10" shape="1771.04,751.02 1771.04,751.02"/>
    </edge>
    <edge id=":10224046646_0" function="internal">
        <lane id=":10224046646_0_0" index="0" allow="rail_urban" speed="18.06" length="0.29" shape="1694.91,750.04 1695.19,750.11"/>
    </edge>
    <edge id=":10224046652_0" function="internal">
        <lane id=":10224046652_0_0" index="0" allow="rail_urban" speed="18.06" length="0.10" shape="1514.83,553.54 1514.83,553.54"/>
    </edge>
    <edge id=":10224046653_0" function="internal">
        <lane id=":10224046653_0_0" index="0" allow="rail_urban" speed="18.06" length="0.27" shape="1948.95,916.11 1948.82,915.88"/>
    </edge>
    <edge id=":10224046676_0" function="internal">
        <lane id=":10224046676_0_0" index="0" allow="rail_urban" speed="18.06" length="0.25" shape="1877.86,819.91 1877.68,819.73"/>
    </edge>
    <edge id=":10224046693_0" function="internal">
        <lane id=":10224046693_0_0" index="0" allow="rail_urban" speed="18.06" length="0.27" shape="1531.88,536.73 1531.77,536.49"/>
    </edge>
    <edge id=":10224046705_0" function="internal">
        <lane id=":10224046705_0_0" index="0" allow="rail_urban" speed="18.06" length="0.29" shape="1579.61,666.91 1579.75,667.17"/>
    </edge>
    <edge id=":10226543961_0" function="internal">
        <lane id=":10226543961_0_0" index="0" disallow="tram rail_urban rail rail_electric rail_fast ship" speed="8.94" length="5.01" shape="2239.80,250.53 2235.10,248.79"/>
    </edge>
    <edge id=":10226543961_1" function="internal">
        <lane id=":10226543961_1_0" index="0" disallow="tram rail_urban rail rail_electric rail_fast ship" speed="8.94" length="5.00" shape="2236.22,245.79 2240.91,247.52"/>
    </edge>
    <edge id=":10264971353_0" function="internal">
        <lane id=":10264971353_0_0" index="0" allow="pedestrian bicycle" speed="2.89" length="2.92" width="2.00" shape="1608.48,1048.17 1608.10,1048.99 1607.64,1049.31 1607.11,1049.14 1606.50,1048.47"/>
    </edge>
    <edge id=":1031555739_0" function="internal">
        <lane id=":1031555739_0_0" index="0" allow="pedestrian bicycle" speed="5.56" length="5.76" width="2.00" shape="1551.18,560.53 1549.87,561.60 1549.10,562.49 1548.54,563.54 1547.87,565.10"/>
    </edge>
    <edge id=":1031555739_1" function="internal">
        <lane id=":1031555739_1_0" index="0" allow="pedestrian bicycle" speed="2.89" length="0.79" width="2.00" shape="1551.18,560.53 1550.38,560.58"/>
    </edge>
    <edge id=":1031555739_4" function="internal">
        <lane id=":1031555739_4_0" index="0" allow="pedestrian bicycle" speed="2.89" length="2.13" width="2.00" shape="1550.38,560.58 1550.28,560.58 1549.77,560.34 1549.67,559.79 1549.97,558.94"/>
    </edge>
    <edge id=":1031555739_2" function="internal">
        <lane id=":1031555739_2_0" index="0" allow="pedestrian bicycle" speed="5.56" length="6.79" width="2.00" shape="1546.04,564.30 1546.84,562.46 1547.51,561.23 1548.42,560.19 1549.97,558.94"/>
    </edge>
    <edge id=":1031555739_3" function="internal">
        <lane id=":1031555739_3_0" index="0" allow="pedestrian bicycle" speed="2.89" length="2.40" width="2.00" shape="1546.04,564.30 1546.79,563.82 1547.35,563.79 1547.71,564.22 1547.78,564.59"/>
    </edge>
    <edge id=":1031555739_5" function="internal">
        <lane id=":1031555739_5_0" index="0" allow="pedestrian bicycle" speed="2.89" length="0.52" width="2.00" shape="1547.78,564.59 1547.87,565.10"/>
    </edge>
    <edge id=":1031555747_0" function="internal">
        <lane id=":1031555747_0_0" index="0" disallow="tram rail_urban rail rail_electric rail_fast ship" speed="8.94" length="17.08" shape="1532.03,585.15 1523.69,570.25"/>
    </edge>
    <edge id=":1031555747_1" function="internal">
        <lane id=":1031555747_1_0" index="0" disallow="tram rail_urban rail rail_electric rail_fast ship" speed="8.94" length="17.08" shape="1534.90,583.10 1532.10,580.13 1529.03,576.88 1526.08,573.53 1523.69,570.25"/>
    </edge>
    <edge id=":1031555862_0" function="internal">
        <lane id=":1031555862_0_0" index="0" allow="bicycle" speed="5.13" length="4.72" width="2.00" shape="1603.69,474.75 1602.97,475.21 1602.34,476.37 1601.84,477.74 1601.52,478.78"/>
    </edge>
    <edge id=":1031555862_1" function="internal">
        <lane id=":1031555862_1_0" index="0" allow="bicycle" speed="2.89" length="2.92" width="2.00" shape="1603.69,474.75 1602.99,474.19 1602.78,473.67 1603.07,473.19 1603.86,472.76"/>
    </edge>
    <edge id=":1031555862_2" function="internal">
        <lane id=":1031555862_2_0" index="0" allow="bicycle" speed="5.56" length="7.38" width="2.00" shape="1599.60,478.21 1600.51,475.74 1601.52,474.01 1602.64,473.01 1603.86,472.76"/>
    </edge>
    <edge id=":1031555862_3" function="internal">
        <lane id=":1031555862_3_0" index="0" allow="pedestrian bicycle" speed="2.89" length="2.45" width="2.00" shape="1599.60,478.21 1600.30,477.63 1600.85,477.54 1601.26,477.92 1601.38,478.33"/>
    </edge>
    <edge id=":1031555862_4" function="internal">
        <lane id=":1031555862_4_0" index="0" allow="pedestrian bicycle" speed="2.89" length="0.47" width="2.00" shape="1601.38,478.33 1601.52,478.78"/>
    </edge>
    <edge id=":1031555922_0" function="internal">
        <lane id=":1031555922_0_0" index="0" allow="pedestrian bicycle" speed="5.56" length="6.00" width="2.00" shape="1589.16,503.87 1588.76,502.18 1588.77,500.95 1589.16,499.75 1589.91,498.14"/>
    </edge>
    <edge id=":1031555922_1" function="internal">
        <lane id=":1031555922_1_0" index="0" allow="pedestrian bicycle" speed="2.89" length="2.92" width="2.00" shape="1589.16,503.87 1589.42,503.01 1589.83,502.63 1590.38,502.73 1591.08,503.31"/>
    </edge>
    <edge id=":1031555922_2" function="internal">
        <lane id=":1031555922_2_0" index="0" allow="pedestrian bicycle" speed="5.56" length="4.54" width="2.00" shape="1591.72,498.99 1591.14,500.20 1590.82,501.10 1590.79,502.03 1591.08,503.31"/>
    </edge>
    <edge id=":1031555922_3" function="internal">
        <lane id=":1031555922_3_0" index="0" allow="pedestrian bicycle" speed="2.89" length="2.92" width="2.00" shape="1591.72,498.99 1590.95,499.45 1590.39,499.47 1590.04,499.03 1589.91,498.14"/>
    </edge>
    <edge id=":1034451450_0" function="internal">
        <lane id=":1034451450_0_0" index="0" allow="pedestrian delivery bicycle" speed="7.58" length="7.79" shape="800.80,155.97 798.57,154.43 796.66,153.47 795.06,153.09 793.78,153.30"/>
    </edge>
    <edge id=":1034451450_1" function="internal">
        <lane id=":1034451450_1_0" index="0" allow="pedestrian delivery bicycle" speed="7.49" length="17.00" shape="800.80,155.97 796.83,152.14 795.47,148.74 796.73,145.79 800.61,143.28"/>
    </edge>
    <edge id=":1034451450_2" function="internal">
        <lane id=":1034451450_2_0" index="0" allow="pedestrian delivery bicycle" speed="3.65" length="4.67" shape="800.80,155.97 800.32,154.61 800.47,153.73 801.27,153.33 802.71,153.40"/>
    </edge>
    <edge id=":1034451450_3" function="internal">
        <lane id=":1034451450_3_0" index="0" allow="pedestrian delivery bicycle" speed="4.69" length="5.79" shape="803.20,149.13 801.73,150.03 801.16,151.05 801.48,152.17 802.71,153.40"/>
    </edge>
    <edge id=":1034451450_4" function="internal">
        <lane id=":1034451450_4_0" index="0" disallow="tram rail_urban rail rail_electric rail_fast ship" speed="13.41" length="10.30" shape="803.20,149.13 793.78,153.30"/>
        <lane id=":1034451450_4_1" index="1" disallow="tram rail_urban rail rail_electric rail_fast ship" speed="13.41" length="10.30" shape="801.90,146.20 792.48,150.37"/>
    </edge>
    <edge id=":1034451450_6" function="internal">
        <lane id=":1034451450_6_0" index="0" disallow="tram rail_urban rail rail_electric rail_fast ship" speed="13.41" length="10.30" shape="789.90,144.51 799.32,140.35"/>
        <lane id=":1034451450_6_1" index="1" disallow="tram rail_urban rail rail_electric rail_fast ship" speed="13.41" length="10.30" shape="791.19,147.44 800.61,143.28"/>
    </edge>
    <edge id=":1034451450_8" function="internal">
        <lane id=":1034451450_8_0" index="0" allow="pedestrian delivery bicycle" speed="9.49" length="1.73" shape="791.19,147.44 792.81,147.42 792.91,147.46"/>
    </edge>
    <edge id=":1034451450_9" function="internal">
        <lane id=":1034451450_9_0" index="0" allow="pedestrian delivery bicycle" speed="9.49" length="11.51" shape="792.91,147.46 795.26,148.40 798.57,150.40 802.71,153.40"/>
    </edge>
    <edge id=":1034451451_0" function="internal">
        <lane id=":1034451451_0_0" index="0" allow="pedestrian delivery bicycle" speed="5.56" length="9.83" shape="832.99,191.21 832.20,188.48 831.14,186.80 829.79,185.23 828.13,182.82"/>
    </edge>
    <edge id=":1034451451_1" function="internal">
        <lane id=":1034451451_1_0" index="0" allow="pedestrian delivery bicycle" speed="5.56" length="10.15" shape="832.99,191.21 832.72,188.40 833.01,185.88 833.84,183.64 835.23,181.68"/>
    </edge>
    <edge id=":1034451451_2" function="internal">
        <lane id=":1034451451_2_0" index="0" allow="pedestrian delivery bicycle" speed="3.81" length="4.67" shape="832.99,191.21 833.09,189.77 833.58,189.02 834.47,188.97 835.76,189.61"/>
    </edge>
    <edge id=":1034451451_3" function="internal">
        <lane id=":1034451451_3_0" index="0" allow="pedestrian delivery bicycle" speed="5.56" length="6.46" shape="837.59,183.84 836.29,185.50 835.55,187.01 835.38,188.38 835.76,189.61"/>
    </edge>
    <edge id=":1034451451_4" function="internal">
        <lane id=":1034451451_4_0" index="0" allow="pedestrian delivery bicycle" speed="5.56" length="11.83" shape="837.59,183.84 834.96,186.00 832.51,186.55 830.23,185.49 828.13,182.82"/>
    </edge>
    <edge id=":1034451451_5" function="internal">
        <lane id=":1034451451_5_0" index="0" allow="pedestrian delivery bicycle" speed="3.65" length="4.67" shape="837.59,183.84 836.19,184.18 835.33,183.94 835.01,183.10 835.23,181.68"/>
    </edge>
    <edge id=":1034451451_6" function="internal">
        <lane id=":1034451451_6_0" index="0" allow="pedestrian delivery bicycle" speed="4.78" length="5.41" shape="830.90,181.21 831.86,182.44 832.90,182.92 834.02,182.67 835.23,181.68"/>
    </edge>
    <edge id=":1034451451_7" function="internal">
        <lane id=":1034451451_7_0" index="0" allow="pedestrian delivery bicycle" speed="5.56" length="9.71" shape="830.90,181.21 835.76,189.61"/>
    </edge>
    <edge id=":1034451451_8" function="internal">
        <lane id=":1034451451_8_0" index="0" allow="pedestrian delivery bicycle" speed="3.65" length="4.67" shape="830.90,181.21 830.81,182.65 830.32,183.40 829.42,183.46 828.13,182.82"/>
    </edge>
    <edge id=":1034451469_0" function="internal">
        <lane id=":1034451469_0_0" index="0" allow="pedestrian delivery bicycle" speed="5.56" length="5.40" shape="822.84,174.43 821.97,173.08 821.39,172.15 820.85,171.19 820.11,169.77"/>
    </edge>
    <edge id=":1034451469_1" function="internal">
        <lane id=":1034451469_1_0" index="0" allow="pedestrian delivery bicycle" speed="5.56" length="9.82" shape="822.84,174.43 822.16,172.56 822.39,170.50 823.55,168.24 825.62,165.77"/>
    </edge>
    <edge id=":1034451469_2" function="internal">
        <lane id=":1034451469_2_0" index="0" allow="pedestrian delivery bicycle" speed="3.65" length="4.67" shape="822.84,174.43 822.86,172.98 823.31,172.21 824.20,172.11 825.52,172.68"/>
    </edge>
    <edge id=":1034451469_3" function="internal">
        <lane id=":1034451469_3_0" index="0" allow="pedestrian delivery bicycle" speed="5.56" length="5.52" shape="827.90,168.02 826.53,169.55 825.67,170.84 825.34,171.88 825.52,172.68"/>
    </edge>
    <edge id=":1034451469_4" function="internal">
        <lane id=":1034451469_4_0" index="0" allow="pedestrian delivery bicycle" speed="5.56" length="9.51" shape="827.90,168.02 825.27,170.30 823.09,171.35 821.37,171.17 820.11,169.77"/>
    </edge>
    <edge id=":1034451469_5" function="internal">
        <lane id=":1034451469_5_0" index="0" allow="pedestrian delivery bicycle" speed="3.65" length="4.67" shape="827.90,168.02 826.48,168.31 825.63,168.03 825.34,167.19 825.62,165.77"/>
    </edge>
    <edge id=":1034451469_6" function="internal">
        <lane id=":1034451469_6_0" index="0" allow="pedestrian delivery bicycle" speed="4.20" length="3.91" shape="822.96,168.31 823.47,168.39 824.20,167.64 824.97,166.59 825.62,165.77"/>
    </edge>
    <edge id=":1034451469_7" function="internal">
        <lane id=":1034451469_7_0" index="0" allow="pedestrian delivery bicycle" speed="5.56" length="5.08" shape="822.96,168.31 823.65,169.65 824.16,170.55 824.70,171.42 825.52,172.68"/>
    </edge>
    <edge id=":1034451469_8" function="internal">
        <lane id=":1034451469_8_0" index="0" allow="pedestrian delivery bicycle" speed="3.65" length="4.67" shape="822.96,168.31 822.79,169.74 822.26,170.46 821.37,170.47 820.11,169.77"/>
    </edge>
    <edge id=":1034451478_0" function="internal">
        <lane id=":1034451478_0_0" index="0" allow="pedestrian delivery bicycle" speed="5.56" length="11.44" shape="842.54,271.49 839.89,269.72 837.98,268.08 836.33,266.16 834.45,263.57"/>
    </edge>
    <edge id=":1034451478_1" function="internal">
        <lane id=":1034451478_1_0" index="0" allow="pedestrian delivery bicycle" speed="5.56" length="11.45" shape="842.54,271.49 840.28,269.53 839.35,267.25 839.75,264.66 841.48,261.76"/>
    </edge>
    <edge id=":1034451478_2" function="internal">
        <lane id=":1034451478_2_0" index="0" allow="pedestrian delivery bicycle" speed="3.65" length="4.67" shape="842.54,271.49 841.94,270.18 842.02,269.29 842.78,268.82 844.22,268.77"/>
    </edge>
    <edge id=":1034451478_3" function="internal">
        <lane id=":1034451478_3_0" index="0" allow="pedestrian delivery bicycle" speed="5.26" length="6.02" shape="844.11,263.60 843.10,265.21 842.79,266.61 843.16,267.80 844.22,268.77"/>
    </edge>
    <edge id=":1034451478_4" function="internal">
        <lane id=":1034451478_4_0" index="0" allow="pedestrian delivery bicycle" speed="5.56" length="11.95" shape="844.11,263.60 841.60,266.02 839.16,266.83 836.77,266.01 834.45,263.57"/>
    </edge>
    <edge id=":1034451478_5" function="internal">
        <lane id=":1034451478_5_0" index="0" allow="pedestrian delivery bicycle" speed="3.65" length="4.68" shape="844.11,263.60 842.76,264.12 841.87,263.99 841.45,263.21 841.48,261.76"/>
    </edge>
    <edge id=":1034451478_6" function="internal">
        <lane id=":1034451478_6_0" index="0" allow="pedestrian delivery bicycle" speed="4.81" length="5.46" shape="837.07,261.72 838.13,262.84 839.22,263.23 840.34,262.86 841.48,261.76"/>
    </edge>
    <edge id=":1034451478_7" function="internal">