<?xml version="1.0" encoding="UTF-8"?>

<!-- generated on 2023-07-06 18:12:28 by Eclipse SUMO netconvert Version 1.18.0
<configuration xmlns:xsi="http://www.w3.org/2001/XMLSchema-instance" xsi:noNamespaceSchemaLocation="http://sumo.dlr.de/xsd/netconvertConfiguration.xsd">

    <input>
        <type-files value="osmNetconvert.typ.xml"/>
        <osm-files value="shenzhentest.osm"/>
    </input>

    <output>
        <output-file value="shenzhentest.net.xml"/>
    </output>

    <projection>
        <proj.utm value="true"/>
    </projection>

    <report>
        <xml-validation value="never"/>
    </report>

</configuration>
-->

<net version="1.16" junctionCornerDetail="5" limitTurnSpeed="5.50" xmlns:xsi="http://www.w3.org/2001/XMLSchema-instance" xsi:noNamespaceSchemaLocation="http://sumo.dlr.de/xsd/net_file.xsd">

    <location netOffset="-801424.67,-2493893.35" convBoundary="0.00,0.00,1578.13,950.09" origBoundary="113.930261,22.524942,113.945634,22.533468" projParameter="+proj=utm +zone=49 +ellps=WGS84 +datum=WGS84 +units=m +no_defs"/>

    <type id="highway.secondary" priority="11" numLanes="1" speed="27.78" disallow="tram rail_urban rail rail_electric rail_fast ship" oneway="0"/>
    <type id="highway.tertiary" priority="10" numLanes="1" speed="22.22" disallow="tram rail_urban rail rail_electric rail_fast ship" oneway="0"/>
    <type id="highway.unclassified" priority="4" numLanes="1" speed="13.89" disallow="tram rail_urban rail rail_electric rail_fast ship" oneway="0"/>

    <edge id=":10824608057_0" function="internal">
        <lane id=":10824608057_0_0" index="0" disallow="tram rail_urban rail rail_electric rail_fast ship" speed="3.65" length="4.67" shape="589.84,566.56 589.54,567.97 588.95,568.64 588.06,568.56 586.87,567.74"/>
    </edge>
    <edge id=":10824608061_0" function="internal">
        <lane id=":10824608061_0_0" index="0" disallow="tram rail_urban rail rail_electric rail_fast ship" speed="6.61" length="9.16" shape="517.33,346.85 514.89,347.22 513.13,348.31 512.05,350.10 511.66,352.61"/>
    </edge>
    <edge id=":10824608061_1" function="internal">
        <lane id=":10824608061_1_0" index="0" disallow="tram rail_urban rail rail_electric rail_fast ship" speed="27.78" length="14.40" shape="517.33,346.85 502.92,346.94"/>
    </edge>
    <edge id=":10824608061_2" function="internal">
        <lane id=":10824608061_2_0" index="0" disallow="tram rail_urban rail rail_electric rail_fast ship" speed="6.45" length="9.03" shape="508.46,352.54 508.15,350.08 507.13,348.32 505.39,347.28 502.92,346.94"/>
    </edge>
    <edge id=":10824608061_3" function="internal">
        <lane id=":10824608061_3_0" index="0" disallow="tram rail_urban rail rail_electric rail_fast ship" speed="3.65" length="4.67" shape="508.46,352.54 509.28,351.36 510.09,350.98 510.88,351.39 511.66,352.61"/>
    </edge>
    <edge id=":2299624560_0" function="internal">
        <lane id=":2299624560_0_0" index="0" disallow="tram rail_urban rail rail_electric rail_fast ship" speed="3.65" length="4.67" shape="157.42,546.07 157.19,547.49 156.62,548.19 155.73,548.16 154.50,547.40"/>
    </edge>
    <edge id=":2299624602_0" function="internal">
        <lane id=":2299624602_0_0" index="0" disallow="tram rail_urban rail rail_electric rail_fast ship" speed="6.74" length="9.38" shape="328.63,384.35 326.14,384.70 324.32,385.78 323.16,387.60 322.67,390.15"/>
    </edge>
    <edge id=":2299624602_1" function="internal">
        <lane id=":2299624602_1_0" index="0" disallow="tram rail_urban rail rail_electric rail_fast ship" speed="13.89" length="14.53" shape="328.63,384.35 314.10,384.28"/>
    </edge>
    <edge id=":2299624602_2" function="internal">
        <lane id=":2299624602_2_0" index="0" disallow="tram rail_urban rail rail_electric rail_fast ship" speed="8.03" length="4.05" shape="328.63,384.35 324.80,383.78 324.65,383.69"/>
    </edge>
    <edge id=":2299624602_3" function="internal">
        <lane id=":2299624602_3_0" index="0" disallow="tram rail_urban rail rail_electric rail_fast ship" speed="3.65" length="1.44" shape="328.63,384.35 327.44,383.54"/>
    </edge>
    <edge id=":2299624602_16" function="internal">
        <lane id=":2299624602_16_0" index="0" disallow="tram rail_urban rail rail_electric rail_fast ship" speed="8.03" length="10.15" shape="324.65,383.69 322.06,382.11 320.40,379.35 319.84,375.49"/>
    </edge>
    <edge id=":2299624602_17" function="internal">
        <lane id=":2299624602_17_0" index="0" disallow="tram rail_urban rail rail_electric rail_fast ship" speed="3.65" length="3.23" shape="327.44,383.54 327.04,382.74 327.44,381.94 328.65,381.15"/>
    </edge>
    <edge id=":2299624602_4" function="internal">
        <lane id=":2299624602_4_0" index="0" disallow="tram rail_urban rail rail_electric rail_fast ship" speed="6.54" length="9.08" shape="323.04,375.47 323.40,377.95 324.45,379.72 326.20,380.78 328.65,381.15"/>
    </edge>
    <edge id=":2299624602_5" function="internal">
        <lane id=":2299624602_5_0" index="0" disallow="tram rail_urban rail rail_electric rail_fast ship" speed="13.89" length="14.68" shape="323.04,375.47 322.67,390.15"/>
    </edge>
    <edge id=":2299624602_6" function="internal">
        <lane id=":2299624602_6_0" index="0" disallow="tram rail_urban rail rail_electric rail_fast ship" speed="8.01" length="14.33" shape="323.04,375.47 322.49,379.34 320.82,382.10 318.03,383.74 314.10,384.28"/>
    </edge>
    <edge id=":2299624602_7" function="internal">
        <lane id=":2299624602_7_0" index="0" disallow="tram rail_urban rail rail_electric rail_fast ship" speed="3.65" length="4.67" shape="323.04,375.47 322.24,376.68 321.44,377.08 320.64,376.69 319.84,375.49"/>
    </edge>
    <edge id=":2299624602_8" function="internal">
        <lane id=":2299624602_8_0" index="0" disallow="tram rail_urban rail rail_electric rail_fast ship" speed="6.52" length="9.14" shape="314.12,381.08 316.63,380.74 318.42,379.69 319.49,377.94 319.84,375.49"/>
    </edge>
    <edge id=":2299624602_9" function="internal">
        <lane id=":2299624602_9_0" index="0" disallow="tram rail_urban rail rail_electric rail_fast ship" speed="13.89" length="14.53" shape="314.12,381.08 328.65,381.15"/>
    </edge>
    <edge id=":2299624602_10" function="internal">
        <lane id=":2299624602_10_0" index="0" disallow="tram rail_urban rail rail_electric rail_fast ship" speed="7.92" length="4.11" shape="314.12,381.08 318.04,381.66 318.16,381.73"/>
    </edge>
    <edge id=":2299624602_11" function="internal">
        <lane id=":2299624602_11_0" index="0" disallow="tram rail_urban rail rail_electric rail_fast ship" speed="3.65" length="1.44" shape="314.12,381.08 315.31,381.88"/>
    </edge>
    <edge id=":2299624602_18" function="internal">
        <lane id=":2299624602_18_0" index="0" disallow="tram rail_urban rail rail_electric rail_fast ship" speed="7.92" length="10.28" shape="318.16,381.73 320.78,383.37 322.32,386.20 322.67,390.15"/>
    </edge>
    <edge id=":2299624602_19" function="internal">
        <lane id=":2299624602_19_0" index="0" disallow="tram rail_urban rail rail_electric rail_fast ship" speed="3.65" length="3.23" shape="315.31,381.88 315.71,382.68 315.31,383.48 314.10,384.28"/>
    </edge>
    <edge id=":2299624602_12" function="internal">
        <lane id=":2299624602_12_0" index="0" disallow="tram rail_urban rail rail_electric rail_fast ship" speed="6.40" length="9.04" shape="319.48,389.98 319.26,387.49 318.29,385.72 316.57,384.64 314.10,384.28"/>
    </edge>
    <edge id=":2299624602_13" function="internal">
        <lane id=":2299624602_13_0" index="0" disallow="tram rail_urban rail rail_electric rail_fast ship" speed="13.89" length="14.49" shape="319.48,389.98 319.84,375.49"/>
    </edge>
    <edge id=":2299624602_14" function="internal">
        <lane id=":2299624602_14_0" index="0" disallow="tram rail_urban rail rail_electric rail_fast ship" speed="8.19" length="14.36" shape="319.48,389.98 320.23,386.10 322.01,383.33 324.81,381.68 328.65,381.15"/>
    </edge>
    <edge id=":2299624602_15" function="internal">
        <lane id=":2299624602_15_0" index="0" disallow="tram rail_urban rail rail_electric rail_fast ship" speed="3.65" length="4.67" shape="319.48,389.98 320.34,388.82 321.16,388.46 321.94,388.91 322.67,390.15"/>
    </edge>
    <edge id=":2537977707_0" function="internal">
        <lane id=":2537977707_0_0" index="0" disallow="tram rail_urban rail rail_electric rail_fast ship" speed="22.22" length="0.30" shape="672.17,719.64 671.95,719.44"/>
    </edge>
    <edge id=":4840143140_0" function="internal">
        <lane id=":4840143140_0_0" index="0" disallow="tram rail_urban rail rail_electric rail_fast ship" speed="3.65" length="4.67" shape="367.17,779.72 366.47,778.46 366.48,777.57 367.20,777.04 368.64,776.88"/>
    </edge>
    <edge id=":5175418461_0" function="internal">
        <lane id=":5175418461_0_0" index="0" disallow="tram rail_urban rail rail_electric rail_fast ship" speed="22.22" length="0.26" shape="336.59,93.16 336.53,92.91"/>
    </edge>
    <edge id=":5175418474_0" function="internal">
        <lane id=":5175418474_0_0" index="0" disallow="tram rail_urban rail rail_electric rail_fast ship" speed="7.41" length="9.65" shape="379.65,250.14 378.70,247.95 377.15,246.38 375.03,245.44 372.31,245.13"/>
    </edge>
    <edge id=":5175418474_1" function="internal">
        <lane id=":5175418474_1_0" index="0" disallow="tram rail_urban rail rail_electric rail_fast ship" speed="22.22" length="13.65" shape="379.65,250.14 376.14,236.95"/>
    </edge>
    <edge id=":5175418474_2" function="internal">
        <lane id=":5175418474_2_0" index="0" disallow="tram rail_urban rail rail_electric rail_fast ship" speed="22.22" length="8.72" shape="381.02,245.16 372.31,245.13"/>
        <lane id=":5175418474_2_1" index="1" disallow="tram rail_urban rail rail_electric rail_fast ship" speed="22.22" length="8.72" shape="381.05,241.96 372.31,241.93"/>
    </edge>
    <edge id=":5175418474_4" function="internal">
        <lane id=":5175418474_4_0" index="0" disallow="tram rail_urban rail rail_electric rail_fast ship" speed="6.67" length="7.57" shape="381.05,241.96 379.40,241.63 378.03,240.69 376.95,239.13 376.14,236.95"/>
    </edge>
    <edge id=":5175418488_0" function="internal">
        <lane id=":5175418488_0_0" index="0" disallow="tram rail_urban rail rail_electric rail_fast ship" speed="6.50" length="9.03" shape="306.09,333.32 306.44,335.77 307.49,337.52 309.24,338.57 311.69,338.92"/>
    </edge>
    <edge id=":5175418488_1" function="internal">
        <lane id=":5175418488_1_0" index="0" disallow="tram rail_urban rail rail_electric rail_fast ship" speed="3.65" length="4.67" shape="306.09,333.32 305.29,334.52 304.49,334.92 303.69,334.51 302.89,333.31"/>
    </edge>
    <edge id=":5175418488_2" function="internal">
        <lane id=":5175418488_2_0" index="0" disallow="tram rail_urban rail rail_electric rail_fast ship" speed="6.51" length="9.04" shape="297.29,338.92 299.74,338.57 301.49,337.52 302.54,335.77 302.89,333.31"/>
    </edge>
    <edge id=":5175418488_3" function="internal">
        <lane id=":5175418488_3_0" index="0" disallow="tram rail_urban rail rail_electric rail_fast ship" speed="27.78" length="14.40" shape="297.29,338.92 311.69,338.92"/>
    </edge>
    <edge id=":5175418489_0" function="internal">
        <lane id=":5175418489_0_0" index="0" disallow="tram rail_urban rail rail_electric rail_fast ship" speed="6.51" length="9.03" shape="303.02,250.66 302.67,248.21 301.63,246.46 299.88,245.41 297.43,245.05"/>
    </edge>
    <edge id=":5175418489_1" function="internal">
        <lane id=":5175418489_1_0" index="0" disallow="tram rail_urban rail rail_electric rail_fast ship" speed="3.65" length="4.67" shape="303.02,250.66 303.82,249.46 304.62,249.06 305.42,249.47 306.22,250.67"/>
    </edge>
    <edge id=":5175418489_2" function="internal">
        <lane id=":5175418489_2_0" index="0" disallow="tram rail_urban rail rail_electric rail_fast ship" speed="6.51" length="9.03" shape="311.82,245.07 309.37,245.42 307.62,246.47 306.57,248.22 306.22,250.67"/>
    </edge>
    <edge id=":5175418489_3" function="internal">
        <lane id=":5175418489_3_0" index="0" disallow="tram rail_urban rail rail_electric rail_fast ship" speed="22.22" length="14.39" shape="311.82,245.07 297.43,245.05"/>
        <lane id=":5175418489_3_1" index="1" disallow="tram rail_urban rail rail_electric rail_fast ship" speed="22.22" length="14.39" shape="311.83,241.87 297.44,241.85"/>
    </edge>
    <edge id=":6855920381_0" function="internal">
        <lane id=":6855920381_0_0" index="0" disallow="tram rail_urban rail rail_electric rail_fast ship" speed="3.65" length="4.67" shape="327.70,534.77 327.86,536.20 327.51,537.03 326.64,537.24 325.25,536.84"/>
    </edge>
    <edge id=":6901200204_0" function="internal">
        <lane id=":6901200204_0_0" index="0" disallow="tram rail_urban rail rail_electric rail_fast ship" speed="7.09" length="8.85" shape="406.61,352.65 405.76,350.48 404.41,348.91 402.56,347.97 400.21,347.63"/>
    </edge>
    <edge id=":6901200204_1" function="internal">
        <lane id=":6901200204_1_0" index="0" disallow="tram rail_urban rail rail_electric rail_fast ship" speed="22.22" length="9.06" shape="406.61,352.65 404.44,343.86"/>
    </edge>
    <edge id=":6901200204_2" function="internal">
        <lane id=":6901200204_2_0" index="0" disallow="tram rail_urban rail rail_electric rail_fast ship" speed="27.78" length="8.35" shape="408.56,347.62 400.21,347.63"/>
    </edge>
    <edge id=":6901200204_3" function="internal">
        <lane id=":6901200204_3_0" index="0" disallow="tram rail_urban rail rail_electric rail_fast ship" speed="5.95" length="6.09" shape="408.56,347.62 407.12,347.41 405.95,346.71 405.06,345.53 404.44,343.86"/>
    </edge>
    <edge id=":6901200356_0" function="internal">
        <lane id=":6901200356_0_0" index="0" disallow="tram rail_urban rail rail_electric rail_fast ship" speed="22.22" length="0.25" shape="679.69,726.53 679.50,726.36"/>
    </edge>
    <edge id=":7288500280_0" function="internal">
        <lane id=":7288500280_0_0" index="0" disallow="tram rail_urban rail rail_electric rail_fast ship" speed="6.50" length="9.03" shape="561.28,333.50 561.61,335.95 562.65,337.71 564.40,338.76 566.85,339.12"/>
    </edge>
    <edge id=":7288500280_1" function="internal">
        <lane id=":7288500280_1_0" index="0" disallow="tram rail_urban rail rail_electric rail_fast ship" speed="3.65" length="4.67" shape="561.28,333.50 560.47,334.69 559.67,335.09 558.87,334.68 558.08,333.47"/>
    </edge>
    <edge id=":7288500280_2" function="internal">
        <lane id=":7288500280_2_0" index="0" disallow="tram rail_urban rail rail_electric rail_fast ship" speed="6.54" length="9.06" shape="552.46,339.11 554.90,338.76 556.65,337.70 557.71,335.94 558.08,333.47"/>
    </edge>
    <edge id=":7288500280_3" function="internal">
        <lane id=":7288500280_3_0" index="0" disallow="tram rail_urban rail rail_electric rail_fast ship" speed="27.78" length="14.39" shape="552.46,339.11 566.85,339.12"/>
    </edge>
    <edge id=":7288500281_0" function="internal">
        <lane id=":7288500281_0_0" index="0" disallow="tram rail_urban rail rail_electric rail_fast ship" speed="6.52" length="9.05" shape="567.47,245.78 565.02,246.12 563.27,247.17 562.21,248.92 561.84,251.38"/>
    </edge>
    <edge id=":7288500281_1" function="internal">
        <lane id=":7288500281_1_0" index="0" disallow="tram rail_urban rail rail_electric rail_fast ship" speed="22.22" length="14.40" shape="567.47,245.78 553.07,245.73"/>
        <lane id=":7288500281_1_1" index="1" disallow="tram rail_urban rail rail_electric rail_fast ship" speed="22.22" length="14.40" shape="567.48,242.58 553.08,242.53"/>
    </edge>
    <edge id=":7288500281_3" function="internal">
        <lane id=":7288500281_3_0" index="0" disallow="tram rail_urban rail rail_electric rail_fast ship" speed="6.50" length="9.03" shape="558.64,251.36 558.31,248.90 557.27,247.15 555.52,246.09 553.07,245.73"/>
    </edge>
    <edge id=":7288500281_4" function="internal">
        <lane id=":7288500281_4_0" index="0" disallow="tram rail_urban rail rail_electric rail_fast ship" speed="3.65" length="4.67" shape="558.64,251.36 559.45,250.16 560.25,249.77 561.05,250.17 561.84,251.38"/>
    </edge>
    <edge id=":830982935_0" function="internal">
        <lane id=":830982935_0_0" index="0" disallow="tram rail_urban rail rail_electric rail_fast ship" speed="22.22" length="10.99" shape="404.39,343.66 401.62,333.03"/>
    </edge>
    <edge id=":830982935_1" function="internal">
        <lane id=":830982935_1_0" index="0" disallow="tram rail_urban rail rail_electric rail_fast ship" speed="5.27" length="6.80" shape="404.39,343.66 404.13,341.59 404.55,340.14 405.67,339.31 407.47,339.10"/>
    </edge>
    <edge id=":830982935_2" function="internal">
        <lane id=":830982935_2_0" index="0" disallow="tram rail_urban rail rail_electric rail_fast ship" speed="6.02" length="9.08" shape="397.10,338.91 399.66,338.54 401.27,337.44 401.93,335.60 401.62,333.03"/>
    </edge>
    <edge id=":830982935_3" function="internal">
        <lane id=":830982935_3_0" index="0" disallow="tram rail_urban rail rail_electric rail_fast ship" speed="27.78" length="10.37" shape="397.10,338.91 407.47,339.10"/>
    </edge>
    <edge id=":9128487765_0" function="internal">
        <lane id=":9128487765_0_0" index="0" disallow="tram rail_urban rail rail_electric rail_fast ship" speed="27.78" length="0.26" shape="19.33,348.19 19.07,348.19"/>
    </edge>
    <edge id=":9128487790_0" function="internal">
        <lane id=":9128487790_0_0" index="0" disallow="tram rail_urban rail rail_electric rail_fast ship" speed="6.51" length="9.06" shape="319.73,352.50 319.37,350.04 318.31,348.29 316.56,347.24 314.10,346.91"/>
    </edge>
    <edge id=":9128487790_1" function="internal">
        <lane id=":9128487790_1_0" index="0" disallow="tram rail_urban rail rail_electric rail_fast ship" speed="3.65" length="4.67" shape="319.73,352.50 320.53,351.30 321.32,350.90 322.13,351.30 322.93,352.49"/>
    </edge>
    <edge id=":9128487790_2" function="internal">
        <lane id=":9128487790_2_0" index="0" disallow="tram rail_urban rail rail_electric rail_fast ship" speed="6.48" length="9.03" shape="328.53,346.93 326.07,347.25 324.32,348.29 323.27,350.04 322.93,352.49"/>
    </edge>
    <edge id=":9128487790_3" function="internal">
        <lane id=":9128487790_3_0" index="0" disallow="tram rail_urban rail rail_electric rail_fast ship" speed="27.78" length="14.43" shape="328.53,346.93 314.10,346.91"/>
    </edge>
    <edge id=":9128520942_0" function="internal">
        <lane id=":9128520942_0_0" index="0" disallow="tram rail_urban rail rail_electric rail_fast ship" speed="22.22" length="0.28" shape="689.88,714.92 690.22,715.24"/>
        <lane id=":9128520942_0_1" index="1" disallow="tram rail_urban rail rail_electric rail_fast ship" speed="22.22" length="0.28" shape="687.73,717.29 687.93,717.49"/>
        <lane id=":9128520942_0_2" index="2" disallow="tram rail_urban rail rail_electric rail_fast ship" speed="22.22" length="0.28" shape="685.59,719.66 685.65,719.73"/>
    </edge>
    <edge id=":9128520943_0" function="internal">
        <lane id=":9128520943_0_0" index="0" disallow="tram rail_urban rail rail_electric rail_fast ship" speed="22.22" length="0.29" shape="681.73,707.55 682.01,707.79"/>
        <lane id=":9128520943_0_1" index="1" disallow="tram rail_urban rail rail_electric rail_fast ship" speed="22.22" length="0.29" shape="679.65,709.97 679.86,710.16"/>
        <lane id=":9128520943_0_2" index="2" disallow="tram rail_urban rail rail_electric rail_fast ship" speed="22.22" length="0.29" shape="677.56,712.40 677.71,712.54"/>
    </edge>
    <edge id=":9128520948_0" function="internal">
        <lane id=":9128520948_0_0" index="0" disallow="tram rail_urban rail rail_electric rail_fast ship" speed="6.05" length="9.07" shape="425.29,347.42 422.74,347.81 421.13,348.92 420.46,350.75 420.73,353.32"/>
    </edge>
    <edge id=":9128520948_1" function="internal">
        <lane id=":9128520948_1_0" index="0" disallow="tram rail_urban rail rail_electric rail_fast ship" speed="27.78" length="16.53" shape="425.29,347.42 408.76,347.62"/>
    </edge>
    <edge id=":9128520948_2" function="internal">
        <lane id=":9128520948_2_0" index="0" disallow="tram rail_urban rail rail_electric rail_fast ship" speed="22.22" length="11.29" shape="418.26,342.51 420.73,353.32"/>
        <lane id=":9128520948_2_1" index="1" disallow="tram rail_urban rail rail_electric rail_fast ship" speed="22.22" length="11.29" shape="415.12,343.10 417.63,354.11"/>
        <lane id=":9128520948_2_2" index="2" disallow="tram rail_urban rail rail_electric rail_fast ship" speed="22.22" length="11.29" shape="411.97,343.70 414.53,354.90"/>
    </edge>
    <edge id=":9128520948_5" function="internal">
        <lane id=":9128520948_5_0" index="0" disallow="tram rail_urban rail rail_electric rail_fast ship" speed="5.18" length="6.03" shape="411.97,343.70 412.05,345.39 411.53,346.60 410.44,347.35 408.76,347.62"/>
    </edge>
    <edge id=":9128520949_0" function="internal">
        <lane id=":9128520949_0_0" index="0" disallow="tram rail_urban rail rail_electric rail_fast ship" speed="7.78" length="10.52" shape="415.74,332.44 416.92,335.49 418.46,337.66 420.36,338.96 422.62,339.39"/>
    </edge>
    <edge id=":9128520949_1" function="internal">
        <lane id=":9128520949_1_0" index="0" disallow="tram rail_urban rail rail_electric rail_fast ship" speed="22.22" length="9.88" shape="415.74,332.44 416.59,335.35 417.16,337.34 417.63,339.35 418.22,342.31"/>
        <lane id=":9128520949_1_1" index="1" disallow="tram rail_urban rail rail_electric rail_fast ship" speed="22.22" length="9.88" shape="412.67,333.33 413.49,336.15 414.04,338.08 414.51,340.03 415.08,342.91"/>
        <lane id=":9128520949_1_2" index="2" disallow="tram rail_urban rail rail_electric rail_fast ship" speed="22.22" length="9.88" shape="409.59,334.22 410.39,336.95 410.93,338.82 411.38,340.71 411.94,343.50"/>
    </edge>
    <edge id=":9128520949_4" function="internal">
        <lane id=":9128520949_4_0" index="0" disallow="tram rail_urban rail rail_electric rail_fast ship" speed="27.78" length="14.95" shape="407.67,339.11 422.62,339.39"/>
    </edge>
    <edge id=":9128520949_5" function="internal">
        <lane id=":9128520949_5_0" index="0" disallow="tram rail_urban rail rail_electric rail_fast ship" speed="7.08" length="8.95" shape="407.67,339.11 410.66,339.46 412.89,340.21 414.37,341.36 415.08,342.91"/>
        <lane id=":9128520949_5_1" index="1" disallow="tram rail_urban rail rail_electric rail_fast ship" speed="6.20" length="6.67" shape="407.67,339.11 409.23,339.44 410.47,340.28 411.37,341.64 411.94,343.50"/>
    </edge>
    <edge id=":9128520950_0" function="internal">
        <lane id=":9128520950_0_0" index="0" disallow="tram rail_urban rail rail_electric rail_fast ship" speed="5.98" length="9.08" shape="396.73,245.24 394.16,245.60 392.56,246.70 391.94,248.54 392.30,251.11"/>
        <lane id=":9128520950_0_1" index="1" disallow="tram rail_urban rail rail_electric rail_fast ship" speed="7.59" length="15.40" shape="396.75,242.04 392.38,242.65 389.67,244.51 388.62,247.63 389.23,252.00"/>
    </edge>
    <edge id=":9128520950_2" function="internal">
        <lane id=":9128520950_2_0" index="0" disallow="tram rail_urban rail rail_electric rail_fast ship" speed="22.22" length="15.72" shape="396.75,242.04 392.09,242.53 388.98,243.62 385.87,244.70 381.22,245.16"/>
        <lane id=":9128520950_2_1" index="1" disallow="tram rail_urban rail rail_electric rail_fast ship" speed="22.22" length="15.72" shape="396.75,242.04 381.25,241.96"/>
    </edge>
    <edge id=":9128520950_4" function="internal">
        <lane id=":9128520950_4_0" index="0" disallow="tram rail_urban rail rail_electric rail_fast ship" speed="22.22" length="16.73" shape="384.84,236.11 386.22,239.36 388.18,242.41 390.33,246.05 392.30,251.11"/>
        <lane id=":9128520950_4_1" index="1" disallow="tram rail_urban rail rail_electric rail_fast ship" speed="22.22" length="16.73" shape="384.84,236.11 389.23,252.00"/>
        <lane id=":9128520950_4_2" index="2" disallow="tram rail_urban rail rail_electric rail_fast ship" speed="22.22" length="16.73" shape="384.84,236.11 385.25,239.64 385.10,243.28 385.14,247.53 386.15,252.89"/>
    </edge>
    <edge id=":9128520950_7" function="internal">
        <lane id=":9128520950_7_0" index="0" disallow="tram rail_urban rail rail_electric rail_fast ship" speed="5.81" length="8.39" shape="384.84,236.11 385.20,238.69 384.71,240.52 383.40,241.61 381.25,241.96"/>
    </edge>

    <edge id="-1163915721" from="10824608061" to="10824608057" priority="4" type="highway.unclassified" shape="510.17,346.89 509.82,364.83 510.09,372.74 544.59,456.75 588.36,567.15">
        <lane id="-1163915721_0" index="0" disallow="tram rail_urban rail rail_electric rail_fast ship" speed="13.89" length="229.11" shape="511.66,352.61 511.42,364.82 511.68,372.40 546.08,456.15 589.84,566.56"/>
    </edge>
    <edge id="-220883468#0" from="2299624602" to="2299624560" priority="4" type="highway.unclassified" shape="321.47,382.71 235.27,382.27 157.06,381.60 142.78,382.29 129.10,385.24 120.24,390.79 112.49,398.46 107.63,406.98 105.26,418.05 105.22,428.17 107.36,437.75 109.94,445.68 155.96,546.73">
        <lane id="-220883468#0_0" index="0" disallow="tram rail_urban rail rail_electric rail_fast ship" speed="13.89" length="363.92" shape="314.10,384.28 235.26,383.87 157.09,383.20 142.99,383.88 129.72,386.75 121.24,392.05 113.77,399.45 109.14,407.56 106.86,418.22 106.82,428.00 108.90,437.33 111.43,445.09 157.42,546.07"/>
    </edge>
    <edge id="-220883468#1" from="4840143140" to="2299624602" priority="4" type="highway.unclassified" shape="367.90,778.30 377.18,783.07 381.95,786.19 392.93,796.84 400.40,806.45 407.83,818.23 412.22,825.40 416.79,832.59 424.71,843.12 437.85,858.22 505.31,928.31 515.68,936.75 523.94,942.00 529.95,945.25 537.30,947.38 549.28,949.48 569.98,949.00 606.57,950.09 616.81,948.78 624.32,946.65 633.21,942.13 640.64,935.22 645.65,929.19 649.08,922.32 651.53,913.85 653.07,903.04 653.48,892.01 653.53,879.85 652.60,874.46 650.79,868.93 647.68,862.83 642.81,855.82 631.28,840.35 567.25,775.19 564.64,767.45 566.48,754.64 574.38,721.51 572.56,708.48 554.80,685.07 513.44,646.22 487.68,622.03 462.41,593.69 458.39,589.19 441.61,563.76 432.53,552.57 426.31,540.16 420.73,525.82 410.81,491.52 406.37,471.10 400.21,452.09 388.48,407.39 385.40,399.34 380.40,391.40 374.00,386.11 365.53,383.60 355.54,382.87 321.47,382.71">
        <lane id="-220883468#1_0" index="0" disallow="tram rail_urban rail rail_electric rail_fast ship" speed="13.89" length="1043.06" shape="368.64,776.88 377.99,781.69 382.95,784.94 394.13,795.77 401.72,805.53 409.19,817.39 413.58,824.56 418.10,831.67 425.96,842.11 439.03,857.14 506.40,927.13 516.62,935.45 524.75,940.62 530.56,943.76 537.66,945.82 549.40,947.87 569.98,947.40 606.49,948.49 616.49,947.20 623.73,945.15 632.29,940.80 639.47,934.12 644.30,928.31 647.58,921.74 649.96,913.51 651.47,902.89 651.88,891.98 651.93,879.98 651.05,874.85 649.30,869.55 646.31,863.65 641.51,856.75 630.06,841.39 565.85,776.05 563.00,767.60 564.90,754.34 572.75,721.43 571.04,709.12 553.61,686.14 512.34,647.39 486.53,623.15 461.22,594.76 457.12,590.17 440.32,564.70 431.18,553.45 424.85,540.81 419.22,526.33 409.26,491.91 404.83,471.52 398.67,452.54 386.96,407.89 383.96,400.06 379.19,392.47 373.23,387.55 365.25,385.18 355.48,384.47 328.63,384.35"/>
    </edge>
    <edge id="-220883470#0" from="2299624602" to="6855920381" priority="4" type="highway.unclassified" shape="321.47,382.71 314.04,521.09 326.47,535.80">
        <lane id="-220883470#0_0" index="0" disallow="tram rail_urban rail rail_electric rail_fast ship" speed="13.89" length="149.21" shape="322.67,390.15 315.67,520.55 327.70,534.77"/>
    </edge>
    <edge id="-220883470#1" from="9128487790" to="2299624602" priority="4" type="highway.unclassified" shape="321.31,346.85 321.34,356.03 321.47,382.71">
        <lane id="-220883470#1_0" index="0" disallow="tram rail_urban rail rail_electric rail_fast ship" speed="13.89" length="22.98" shape="322.93,352.49 322.94,356.03 323.04,375.47"/>
    </edge>
    <edge id="-533466806" from="5175418489" to="5175418488" priority="4" type="highway.unclassified">
        <lane id="-533466806_0" index="0" disallow="tram rail_urban rail rail_electric rail_fast ship" speed="13.89" length="82.65" shape="306.22,250.67 306.09,333.32"/>
    </edge>
    <edge id="-780526354" from="7288500281" to="7288500280" priority="4" type="highway.unclassified">
        <lane id="-780526354_0" index="0" disallow="tram rail_urban rail rail_electric rail_fast ship" speed="13.89" length="82.12" shape="561.84,251.38 561.28,333.50"/>
    </edge>
    <edge id="1163915721" from="10824608057" to="10824608061" priority="4" type="highway.unclassified" shape="588.36,567.15 544.59,456.75 510.09,372.74 509.82,364.83 510.17,346.89">
        <lane id="1163915721_0" index="0" disallow="tram rail_urban rail rail_electric rail_fast ship" speed="13.89" length="230.39" shape="586.87,567.74 543.11,457.35 508.50,373.08 508.22,364.84 508.46,352.54"/>
    </edge>
    <edge id="220883468#0" from="2299624560" to="2299624602" priority="4" type="highway.unclassified" shape="155.96,546.73 109.94,445.68 107.36,437.75 105.22,428.17 105.26,418.05 107.63,406.98 112.49,398.46 120.24,390.79 129.10,385.24 142.78,382.29 157.06,381.60 235.27,382.27 321.47,382.71">
        <lane id="220883468#0_0" index="0" disallow="tram rail_urban rail rail_electric rail_fast ship" speed="13.89" length="370.37" shape="154.50,547.40 108.45,446.26 105.81,438.18 103.62,428.34 103.66,417.88 106.12,406.40 111.21,397.48 119.24,389.53 128.49,383.74 142.58,380.70 157.03,380.00 235.28,380.67 314.12,381.08"/>
    </edge>