<?xml version="1.0" encoding="UTF-8"?>

<!-- generated on 2023-07-06 18:03:50 by Eclipse SUMO netconvert Version 1.18.0
<configuration xmlns:xsi="http://www.w3.org/2001/XMLSchema-instance" xsi:noNamespaceSchemaLocation="http://sumo.dlr.de/xsd/netconvertConfiguration.xsd">

    <input>
        <type-files value="osmNetconvert.typ.xml"/>
        <osm-files value="shenzhen.osm"/>
    </input>

    <output>
        <output-file value="shenzhen.net.xml"/>
    </output>

    <projection>
        <proj.utm value="true"/>
    </projection>

    <report>
        <xml-validation value="never"/>
    </report>

</configuration>
-->

<net version="1.16" junctionCornerDetail="5" limitTurnSpeed="5.50" xmlns:xsi="http://www.w3.org/2001/XMLSchema-instance" xsi:noNamespaceSchemaLocation="http://sumo.dlr.de/xsd/net_file.xsd">

    <location netOffset="-791181.48,-2488561.72" convBoundary="0.00,0.00,25257.10,16336.55" origBoundary="113.832744,22.477391,114.076449,22.693150" projParameter="+proj=utm +zone=49 +ellps=WGS84 +datum=WGS84 +units=m +no_defs"/>

    <type id="highway.cycleway" priority="1" numLanes="1" speed="5.56" allow="bicycle" oneway="0" width="2.00"/>
    <type id="highway.footway" priority="1" numLanes="1" speed="2.78" allow="pedestrian" oneway="1" width="2.00"/>
    <type id="highway.path" priority="1" numLanes="1" speed="5.56" allow="pedestrian bicycle" oneway="0" width="2.00"/>
    <type id="highway.pedestrian" priority="1" numLanes="1" speed="2.78" allow="pedestrian" oneway="1" width="2.00"/>
    <type id="highway.primary" priority="12" numLanes="2" speed="27.78" disallow="tram rail_urban rail rail_electric rail_fast ship" oneway="0"/>
    <type id="highway.primary_link" priority="7" numLanes="1" speed="22.22" disallow="tram rail_urban rail rail_electric rail_fast ship" oneway="0"/>
    <type id="highway.residential" priority="3" numLanes="1" speed="13.89" disallow="tram rail_urban rail rail_electric rail_fast ship" oneway="0"/>
    <type id="highway.secondary" priority="11" numLanes="1" speed="27.78" disallow="tram rail_urban rail rail_electric rail_fast ship" oneway="0"/>
    <type id="highway.secondary_link" priority="6" numLanes="1" speed="22.22" disallow="tram rail_urban rail rail_electric rail_fast ship" oneway="0"/>
    <type id="highway.service" priority="1" numLanes="1" speed="5.56" allow="pedestrian delivery bicycle" oneway="0"/>
    <type id="highway.steps" priority="1" numLanes="1" speed="1.39" allow="pedestrian" oneway="1" width="2.00"/>
    <type id="highway.tertiary" priority="10" numLanes="1" speed="22.22" disallow="tram rail_urban rail rail_electric rail_fast ship" oneway="0"/>
    <type id="highway.trunk" priority="13" numLanes="2" speed="27.78" disallow="pedestrian bicycle tram rail_urban rail rail_electric rail_fast ship" oneway="0"/>
    <type id="highway.trunk_link" priority="8" numLanes="1" speed="22.22" disallow="pedestrian bicycle tram rail_urban rail rail_electric rail_fast ship" oneway="0"/>
    <type id="highway.unclassified" priority="4" numLanes="1" speed="13.89" disallow="tram rail_urban rail rail_electric rail_fast ship" oneway="0"/>
    <type id="railway.subway" priority="18" numLanes="1" speed="27.78" allow="rail_urban" oneway="1"/>

    <edge id=":10088281183_0" function="internal">
        <lane id=":10088281183_0_0" index="0" disallow="tram rail_urban rail rail_electric rail_fast ship" speed="27.78" length="19.04" shape="10855.30,5334.62 10836.26,5334.53"/>
        <lane id=":10088281183_0_1" index="1" disallow="tram rail_urban rail rail_electric rail_fast ship" speed="27.78" length="19.04" shape="10855.32,5331.42 10836.28,5331.33"/>
    </edge>
    <edge id=":10088281183_2" function="internal">
        <lane id=":10088281183_2_0" index="0" disallow="pedestrian bicycle tram rail_urban rail rail_electric rail_fast ship" speed="25.00" length="19.03" shape="10855.32,5331.42 10849.13,5330.93 10844.38,5329.77 10840.49,5328.34 10836.94,5327.05"/>
    </edge>
    <edge id=":10290837852_0" function="internal">
        <lane id=":10290837852_0_0" index="0" allow="pedestrian bicycle" speed="5.26" length="4.01" width="2.00" shape="10062.84,5440.47 10061.89,5439.90 10060.95,5439.63 10060.02,5439.67 10059.09,5440.02"/>
    </edge>
    <edge id=":10290837852_1" function="internal">
        <lane id=":10290837852_1_0" index="0" allow="pedestrian bicycle" speed="5.56" length="6.48" width="2.00" shape="10062.84,5440.47 10061.53,5439.25 10060.64,5437.92 10060.16,5436.47 10060.09,5434.90"/>
    </edge>
    <edge id=":10290837852_2" function="internal">
        <lane id=":10290837852_2_0" index="0" allow="pedestrian bicycle" speed="3.08" length="3.14" width="2.00" shape="10062.84,5440.47 10062.73,5439.50 10062.97,5438.95 10063.56,5438.81 10064.49,5439.08"/>
    </edge>
    <edge id=":10290837852_3" function="internal">
        <lane id=":10290837852_3_0" index="0" allow="pedestrian bicycle" speed="5.56" length="5.58" width="2.00" shape="10062.13,5434.51 10062.16,5436.17 10062.57,5437.48 10063.34,5438.45 10064.49,5439.08"/>
    </edge>
    <edge id=":10290837852_4" function="internal">
        <lane id=":10290837852_4_0" index="0" allow="pedestrian bicycle" speed="5.56" length="6.57" width="2.00" shape="10062.13,5434.51 10061.81,5436.37 10061.20,5437.92 10060.29,5439.13 10059.09,5440.02"/>
    </edge>
    <edge id=":10290837852_5" function="internal">
        <lane id=":10290837852_5_0" index="0" allow="pedestrian bicycle" speed="2.92" length="3.04" width="2.00" shape="10062.13,5434.51 10061.77,5435.37 10061.31,5435.73 10060.75,5435.57 10060.09,5434.90"/>
    </edge>
    <edge id=":10290837852_6" function="internal">
        <lane id=":10290837852_6_0" index="0" allow="pedestrian bicycle" speed="5.56" length="4.05" width="2.00" shape="10058.14,5438.26 10058.91,5437.70 10059.50,5436.95 10059.89,5436.02 10060.09,5434.90"/>
    </edge>
    <edge id=":10290837852_7" function="internal">
        <lane id=":10290837852_7_0" index="0" allow="pedestrian bicycle" speed="5.56" length="6.52" width="2.00" shape="10058.14,5438.26 10059.11,5438.00 10060.49,5438.05 10062.28,5438.41 10064.49,5439.08"/>
    </edge>
    <edge id=":10290837852_8" function="internal">
        <lane id=":10290837852_8_0" index="0" allow="pedestrian bicycle" speed="2.89" length="2.92" width="2.00" shape="10058.14,5438.26 10059.03,5438.35 10059.49,5438.67 10059.51,5439.23 10059.09,5440.02"/>
    </edge>
    <edge id=":10290837869_0" function="internal">
        <lane id=":10290837869_0_0" index="0" allow="pedestrian bicycle" speed="5.56" length="0.35" width="2.00" shape="10062.83,5432.96 10062.76,5433.04 10062.71,5433.09 10062.68,5433.15 10062.64,5433.25"/>
    </edge>
    <edge id=":10290837869_1" function="internal">
        <lane id=":10290837869_1_0" index="0" allow="pedestrian bicycle" speed="5.56" length="1.04" width="2.00" shape="10060.81,5432.43 10060.94,5432.15 10061.04,5431.97 10061.17,5431.80 10061.38,5431.58"/>
    </edge>
    <edge id=":10291071836_0" function="internal">
        <lane id=":10291071836_0_0" index="0" disallow="tram rail_urban rail rail_electric rail_fast ship" speed="3.65" length="4.67" shape="9735.00,5689.44 9734.22,5690.65 9733.43,5691.06 9732.62,5690.67 9731.80,5689.49"/>
    </edge>
    <edge id=":10553808254_0" function="internal">
        <lane id=":10553808254_0_0" index="0" disallow="tram rail_urban rail rail_electric rail_fast ship" speed="22.22" length="0.29" shape="10056.62,5202.24 10056.54,5201.96"/>
    </edge>
    <edge id=":10553808262_0" function="internal">
        <lane id=":10553808262_0_0" index="0" disallow="pedestrian bicycle tram rail_urban rail rail_electric rail_fast ship" speed="27.78" length="0.10" shape="10308.22,5278.79 10308.22,5278.79"/>
        <lane id=":10553808262_0_1" index="1" disallow="pedestrian bicycle tram rail_urban rail rail_electric rail_fast ship" speed="27.78" length="0.10" shape="10308.26,5281.99 10308.26,5281.99"/>
        <lane id=":10553808262_0_2" index="2" disallow="pedestrian bicycle tram rail_urban rail rail_electric rail_fast ship" speed="27.78" length="0.10" shape="10308.30,5285.19 10308.30,5285.19"/>
    </edge>
    <edge id=":10651734142_0" function="internal">
        <lane id=":10651734142_0_0" index="0" disallow="tram rail_urban rail rail_electric rail_fast ship" speed="22.22" length="27.51" shape="11244.48,6176.94 11253.88,6177.23 11261.53,6177.41 11267.53,6177.35 11271.97,6176.89"/>
    </edge>
    <edge id=":10651734142_1" function="internal">
        <lane id=":10651734142_1_0" index="0" disallow="tram rail_urban rail rail_electric rail_fast ship" speed="22.22" length="25.07" shape="11244.48,6176.94 11252.04,6177.35 11257.18,6178.23 11262.16,6179.91 11269.24,6182.71"/>
        <lane id=":10651734142_1_1" index="1" disallow="tram rail_urban rail rail_electric rail_fast ship" speed="22.22" length="25.07" shape="11244.39,6180.14 11251.77,6180.55 11256.79,6181.45 11261.64,6183.13 11268.55,6185.88"/>
        <lane id=":10651734142_1_2" index="2" disallow="tram rail_urban rail rail_electric rail_fast ship" speed="22.22" length="25.07" shape="11244.29,6183.33 11251.50,6183.76 11256.39,6184.67 11261.13,6186.35 11267.87,6189.05"/>
    </edge>
    <edge id=":10673798419_0" function="internal">
        <lane id=":10673798419_0_0" index="0" disallow="tram rail_urban rail rail_electric rail_fast ship" speed="19.11" length="16.01" shape="10947.24,6496.00 10944.34,6498.64 10941.59,6501.69 10939.21,6505.02 10937.45,6508.48"/>
    </edge>
    <edge id=":10673798419_1" function="internal">
        <lane id=":10673798419_1_0" index="0" disallow="tram rail_urban rail rail_electric rail_fast ship" speed="7.03" length="16.22" shape="10947.24,6496.00 10942.67,6499.03 10939.38,6499.54 10937.38,6497.53 10936.66,6493.01"/>
    </edge>
    <edge id=":10673798419_2" function="internal">
        <lane id=":10673798419_2_0" index="0" disallow="tram rail_urban rail rail_electric rail_fast ship" speed="6.49" length="16.52" shape="10947.24,6496.00 10942.35,6499.49 10939.67,6500.10 10939.21,6497.83 10940.96,6492.68"/>
    </edge>
    <edge id=":10673798419_3" function="internal">
        <lane id=":10673798419_3_0" index="0" disallow="tram rail_urban rail rail_electric rail_fast ship" speed="22.22" length="15.90" shape="10943.89,6493.95 10937.45,6508.48"/>
    </edge>
    <edge id=":10673798419_4" function="internal">
        <lane id=":10673798419_4_0" index="0" disallow="tram rail_urban rail rail_electric rail_fast ship" speed="6.82" length="7.29" shape="10943.89,6493.95 10940.82,6499.95 10940.39,6500.30"/>
    </edge>
    <edge id=":10673798419_5" function="internal">
        <lane id=":10673798419_5_0" index="0" disallow="tram rail_urban rail rail_electric rail_fast ship" speed="3.65" length="1.44" shape="10943.89,6493.95 10942.68,6494.73"/>
    </edge>
    <edge id=":10673798419_9" function="internal">
        <lane id=":10673798419_9_0" index="0" disallow="tram rail_urban rail rail_electric rail_fast ship" speed="6.82" length="11.53" shape="10940.39,6500.30 10938.59,6501.79 10937.20,6499.47 10936.66,6493.01"/>
    </edge>
    <edge id=":10673798419_10" function="internal">
        <lane id=":10673798419_10_0" index="0" disallow="tram rail_urban rail rail_electric rail_fast ship" speed="3.65" length="3.23" shape="10942.68,6494.73 10941.79,6494.78 10941.21,6494.10 10940.96,6492.68"/>
    </edge>
    <edge id=":10673798419_6" function="internal">
        <lane id=":10673798419_6_0" index="0" disallow="tram rail_urban rail rail_electric rail_fast ship" speed="22.22" length="14.56" shape="10934.47,6507.31 10935.60,6503.82 10936.28,6500.29 10936.60,6496.70 10936.66,6493.01"/>
    </edge>
    <edge id=":10673798419_7" function="internal">
        <lane id=":10673798419_7_0" index="0" disallow="tram rail_urban rail rail_electric rail_fast ship" speed="22.22" length="16.00" shape="10934.47,6507.31 10940.96,6492.68"/>
    </edge>
    <edge id=":10673798419_8" function="internal">
        <lane id=":10673798419_8_0" index="0" disallow="tram rail_urban rail rail_electric rail_fast ship" speed="3.65" length="1.44" shape="10934.47,6507.31 10935.66,6506.49"/>
    </edge>
    <edge id=":10673798419_11" function="internal">
        <lane id=":10673798419_11_0" index="0" disallow="tram rail_urban rail rail_electric rail_fast ship" speed="3.65" length="3.23" shape="10935.66,6506.49 10936.55,6506.41 10937.15,6507.07 10937.45,6508.48"/>
    </edge>
    <edge id=":10673798424_0" function="internal">
        <lane id=":10673798424_0_0" index="0" disallow="tram rail_urban rail rail_electric rail_fast ship" speed="24.19" length="15.92" shape="10927.49,6469.48 10925.47,6466.58 10923.47,6463.76 10920.76,6460.98 10916.58,6458.18"/>
    </edge>
    <edge id=":10673798424_1" function="internal">
        <lane id=":10673798424_1_0" index="0" disallow="tram rail_urban rail rail_electric rail_fast ship" speed="27.78" length="15.98" shape="10930.59,6465.86 10916.58,6458.18"/>
        <lane id=":10673798424_1_1" index="1" disallow="tram rail_urban rail rail_electric rail_fast ship" speed="27.78" length="15.98" shape="10932.13,6463.05 10918.11,6455.37"/>
    </edge>
    <edge id=":10673798425_0" function="internal">
        <lane id=":10673798425_0_0" index="0" disallow="tram rail_urban rail rail_electric rail_fast ship" speed="19.10" length="16.82" shape="10983.14,6490.27 10978.07,6488.54 10973.93,6488.00 10970.27,6488.19 10966.67,6488.62"/>
    </edge>
    <edge id=":10673798425_1" function="internal">
        <lane id=":10673798425_1_0" index="0" disallow="tram rail_urban rail rail_electric rail_fast ship" speed="27.78" length="16.85" shape="10983.14,6490.27 10967.71,6483.51"/>
        <lane id=":10673798425_1_1" index="1" disallow="tram rail_urban rail rail_electric rail_fast ship" speed="27.78" length="16.85" shape="10984.42,6487.34 10968.99,6480.58"/>
    </edge>
    <edge id=":10673798431_0" function="internal">
        <lane id=":10673798431_0_0" index="0" disallow="tram rail_urban rail rail_electric rail_fast ship" speed="22.22" length="15.24" shape="10972.82,6423.44 10971.70,6427.04 10971.07,6430.81 10970.78,6434.65 10970.67,6438.45"/>
    </edge>
    <edge id=":10673798431_1" function="internal">
        <lane id=":10673798431_1_0" index="0" disallow="tram rail_urban rail rail_electric rail_fast ship" speed="22.22" length="15.22" shape="10972.82,6423.44 10967.06,6437.53"/>
    </edge>
    <edge id=":10673798431_2" function="internal">
        <lane id=":10673798431_2_0" index="0" disallow="tram rail_urban rail rail_electric rail_fast ship" speed="3.65" length="1.44" shape="10972.82,6423.44 10971.62,6424.25"/>
    </edge>
    <edge id=":10673798431_9" function="internal">
        <lane id=":10673798431_9_0" index="0" disallow="tram rail_urban rail rail_electric rail_fast ship" speed="3.65" length="3.23" shape="10971.62,6424.25 10970.73,6424.32 10970.14,6423.65 10969.85,6422.23"/>
    </edge>
    <edge id=":10673798431_3" function="internal">
        <lane id=":10673798431_3_0" index="0" disallow="tram rail_urban rail rail_electric rail_fast ship" speed="18.19" length="11.00" shape="10962.56,6430.25 10964.99,6428.23 10966.89,6426.72 10968.44,6424.97 10969.85,6422.23"/>
    </edge>
    <edge id=":10673798431_4" function="internal">
        <lane id=":10673798431_4_0" index="0" disallow="tram rail_urban rail rail_electric rail_fast ship" speed="7.10" length="17.28" shape="10962.56,6430.25 10966.23,6427.89 10968.80,6428.48 10970.28,6432.00 10970.67,6438.45"/>
    </edge>
    <edge id=":10673798431_5" function="internal">
        <lane id=":10673798431_5_0" index="0" disallow="tram rail_urban rail rail_electric rail_fast ship" speed="6.97" length="19.52" shape="10962.56,6430.25 10967.29,6426.67 10969.62,6426.69 10969.54,6430.31 10967.06,6437.53"/>
    </edge>
    <edge id=":10673798431_6" function="internal">
        <lane id=":10673798431_6_0" index="0" disallow="tram rail_urban rail rail_electric rail_fast ship" speed="22.22" length="15.22" shape="10964.10,6436.32 10969.85,6422.23"/>
    </edge>
    <edge id=":10673798431_7" function="internal">
        <lane id=":10673798431_7_0" index="0" disallow="tram rail_urban rail rail_electric rail_fast ship" speed="6.94" length="7.34" shape="10964.10,6436.32 10967.11,6430.07 10967.42,6429.82"/>
    </edge>
    <edge id=":10673798431_8" function="internal">
        <lane id=":10673798431_8_0" index="0" disallow="tram rail_urban rail rail_electric rail_fast ship" speed="3.65" length="1.44" shape="10964.10,6436.32 10965.29,6435.51"/>
    </edge>
    <edge id=":10673798431_10" function="internal">
        <lane id=":10673798431_10_0" index="0" disallow="tram rail_urban rail rail_electric rail_fast ship" speed="6.94" length="12.68" shape="10967.42,6429.82 10969.22,6428.34 10970.40,6431.13 10970.67,6438.45"/>
    </edge>
    <edge id=":10673798431_11" function="internal">
        <lane id=":10673798431_11_0" index="0" disallow="tram rail_urban rail rail_electric rail_fast ship" speed="3.65" length="3.23" shape="10965.29,6435.51 10966.18,6435.44 10966.77,6436.12 10967.06,6437.53"/>
    </edge>
    <edge id=":10673798437_0" function="internal">
        <lane id=":10673798437_0_0" index="0" disallow="tram rail_urban rail rail_electric rail_fast ship" speed="12.56" length="13.93" shape="10976.02,6460.12 10977.41,6463.23 10979.01,6465.78 10981.40,6467.97 10985.16,6469.98"/>
    </edge>
    <edge id=":10673798437_1" function="internal">
        <lane id=":10673798437_1_0" index="0" disallow="tram rail_urban rail rail_electric rail_fast ship" speed="27.78" length="13.67" shape="10972.59,6464.60 10985.16,6469.98"/>
        <lane id=":10673798437_1_1" index="1" disallow="tram rail_urban rail rail_electric rail_fast ship" speed="27.78" length="13.67" shape="10971.33,6467.54 10983.90,6472.92"/>
        <lane id=":10673798437_1_2" index="2" disallow="tram rail_urban rail rail_electric rail_fast ship" speed="27.78" length="13.67" shape="10970.07,6470.48 10982.64,6475.86"/>
    </edge>
    <edge id=":10673798438_0" function="internal">
        <lane id=":10673798438_0_0" index="0" disallow="tram rail_urban rail rail_electric rail_fast ship" speed="10.32" length="8.24" shape="10927.67,6442.23 10929.80,6443.19 10931.44,6443.29 10933.18,6442.89 10935.59,6442.34"/>
    </edge>
    <edge id=":10673798438_1" function="internal">
        <lane id=":10673798438_1_0" index="0" disallow="tram rail_urban rail rail_electric rail_fast ship" speed="27.78" length="8.09" shape="10927.67,6442.23 10934.63,6446.35"/>
        <lane id=":10673798438_1_1" index="1" disallow="tram rail_urban rail rail_electric rail_fast ship" speed="27.78" length="8.09" shape="10926.04,6444.99 10933.00,6449.10"/>
        <lane id=":10673798438_1_2" index="2" disallow="tram rail_urban rail rail_electric rail_fast ship" speed="27.78" length="8.09" shape="10924.41,6447.74 10931.37,6451.86"/>
    </edge>
    <edge id=":10709358307_0" function="internal">
        <lane id=":10709358307_0_0" index="0" disallow="tram rail_urban rail rail_electric rail_fast ship" speed="13.89" length="5.00" shape="9893.51,5582.30 9888.54,5582.92"/>
    </edge>
    <edge id=":10709358307_1" function="internal">
        <lane id=":10709358307_1_0" index="0" disallow="tram rail_urban rail rail_electric rail_fast ship" speed="13.89" length="5.00" shape="9888.14,5579.75 9893.11,5579.12"/>
    </edge>
    <edge id=":10824608057_0" function="internal">
        <lane id=":10824608057_0_0" index="0" disallow="tram rail_urban rail rail_electric rail_fast ship" speed="22.22" length="14.43" shape="10838.97,5896.72 10826.17,5903.38"/>
    </edge>
    <edge id=":10824608057_1" function="internal">
        <lane id=":10824608057_1_0" index="0" disallow="tram rail_urban rail rail_electric rail_fast ship" speed="7.83" length="4.06" shape="10838.97,5896.72 10835.14,5898.06"/>
    </edge>
    <edge id=":10824608057_2" function="internal">
        <lane id=":10824608057_2_0" index="0" disallow="tram rail_urban rail rail_electric rail_fast ship" speed="3.65" length="1.44" shape="10838.97,5896.72 10837.54,5896.56"/>
    </edge>
    <edge id=":10824608057_9" function="internal">
        <lane id=":10824608057_9_0" index="0" disallow="tram rail_urban rail rail_electric rail_fast ship" speed="7.83" length="10.54" shape="10835.14,5898.06 10831.91,5897.77 10829.29,5895.87 10827.27,5892.35"/>
    </edge>
    <edge id=":10824608057_10" function="internal">
        <lane id=":10824608057_10_0" index="0" disallow="tram rail_urban rail rail_electric rail_fast ship" speed="3.65" length="3.23" shape="10837.54,5896.56 10836.81,5896.04 10836.80,5895.14 10837.49,5893.88"/>
    </edge>
    <edge id=":10824608057_3" function="internal">
        <lane id=":10824608057_3_0" index="0" disallow="tram rail_urban rail rail_electric rail_fast ship" speed="6.30" length="9.04" shape="10830.25,5891.17 10831.50,5893.35 10833.12,5894.53 10835.12,5894.71 10837.49,5893.88"/>
    </edge>
    <edge id=":10824608057_4" function="internal">
        <lane id=":10824608057_4_0" index="0" disallow="tram rail_urban rail rail_electric rail_fast ship" speed="8.36" length="14.36" shape="10830.25,5891.17 10831.23,5895.07 10830.88,5898.40 10829.19,5901.17 10826.17,5903.38"/>
    </edge>
    <edge id=":10824608057_5" function="internal">
        <lane id=":10824608057_5_0" index="0" disallow="tram rail_urban rail rail_electric rail_fast ship" speed="3.65" length="4.67" shape="10830.25,5891.17 10829.94,5892.58 10829.35,5893.25 10828.46,5893.17 10827.27,5892.35"/>
    </edge>
    <edge id=":10824608057_6" function="internal">
        <lane id=":10824608057_6_0" index="0" disallow="tram rail_urban rail rail_electric rail_fast ship" speed="6.93" length="9.57" shape="10824.69,5900.54 10826.66,5899.08 10827.75,5897.23 10827.95,5894.99 10827.27,5892.35"/>
    </edge>
    <edge id=":10824608057_7" function="internal">
        <lane id=":10824608057_7_0" index="0" disallow="tram rail_urban rail rail_electric rail_fast ship" speed="22.22" length="14.43" shape="10824.69,5900.54 10837.49,5893.88"/>
    </edge>
    <edge id=":10824608057_8" function="internal">
        <lane id=":10824608057_8_0" index="0" disallow="tram rail_urban rail rail_electric rail_fast ship" speed="3.65" length="1.44" shape="10824.69,5900.54 10826.12,5900.69"/>
    </edge>
    <edge id=":10824608057_11" function="internal">
        <lane id=":10824608057_11_0" index="0" disallow="tram rail_urban rail rail_electric rail_fast ship" speed="3.65" length="3.23" shape="10826.12,5900.69 10826.85,5901.22 10826.86,5902.11 10826.17,5903.38"/>
    </edge>
    <edge id=":10824608058_0" function="internal">
        <lane id=":10824608058_0_0" index="0" disallow="tram rail_urban rail rail_electric rail_fast ship" speed="6.49" length="9.03" shape="10788.95,5795.68 10787.72,5793.53 10786.10,5792.29 10784.08,5791.97 10781.68,5792.57"/>
    </edge>
    <edge id=":10824608058_1" function="internal">
        <lane id=":10824608058_1_0" index="0" disallow="tram rail_urban rail rail_electric rail_fast ship" speed="13.89" length="14.42" shape="10788.95,5795.68 10783.55,5782.31"/>
    </edge>
    <edge id=":10824608058_2" function="internal">
        <lane id=":10824608058_2_0" index="0" disallow="tram rail_urban rail rail_electric rail_fast ship" speed="8.03" length="14.21" shape="10788.95,5795.68 10788.04,5791.89 10788.55,5788.71 10790.48,5786.15 10793.83,5784.19"/>
    </edge>
    <edge id=":10824608058_3" function="internal">
        <lane id=":10824608058_3_0" index="0" disallow="tram rail_urban rail rail_electric rail_fast ship" speed="3.65" length="4.67" shape="10788.95,5795.68 10789.25,5794.27 10789.85,5793.60 10790.74,5793.68 10791.92,5794.50"/>
    </edge>
    <edge id=":10824608058_4" function="internal">
        <lane id=":10824608058_4_0" index="0" disallow="tram rail_urban rail rail_electric rail_fast ship" speed="6.54" length="9.07" shape="10795.03,5787.16 10792.89,5788.41 10791.66,5790.04 10791.34,5792.08 10791.92,5794.50"/>
    </edge>
    <edge id=":10824608058_5" function="internal">
        <lane id=":10824608058_5_0" index="0" disallow="tram rail_urban rail rail_electric rail_fast ship" speed="13.89" length="14.41" shape="10795.03,5787.16 10781.68,5792.57"/>
    </edge>
    <edge id=":10824608058_6" function="internal">
        <lane id=":10824608058_6_0" index="0" disallow="tram rail_urban rail rail_electric rail_fast ship" speed="8.02" length="4.06" shape="10795.03,5787.16 10791.26,5788.09 10791.09,5788.06"/>
    </edge>
    <edge id=":10824608058_7" function="internal">
        <lane id=":10824608058_7_0" index="0" disallow="tram rail_urban rail rail_electric rail_fast ship" speed="3.65" length="1.44" shape="10795.03,5787.16 10793.62,5786.87"/>
    </edge>
    <edge id=":10824608058_16" function="internal">
        <lane id=":10824608058_16_0" index="0" disallow="tram rail_urban rail rail_electric rail_fast ship" speed="8.02" length="10.14" shape="10791.09,5788.06 10788.09,5787.59 10785.52,5785.66 10783.55,5782.31"/>
    </edge>
    <edge id=":10824608058_17" function="internal">
        <lane id=":10824608058_17_0" index="0" disallow="tram rail_urban rail rail_electric rail_fast ship" speed="3.65" length="3.23" shape="10793.62,5786.87 10792.95,5786.28 10793.02,5785.39 10793.83,5784.19"/>
    </edge>
    <edge id=":10824608058_8" function="internal">
        <lane id=":10824608058_8_0" index="0" disallow="tram rail_urban rail rail_electric rail_fast ship" speed="6.53" length="9.06" shape="10786.51,5781.09 10787.77,5783.23 10789.41,5784.47 10791.43,5784.79 10793.83,5784.19"/>
    </edge>
    <edge id=":10824608058_9" function="internal">
        <lane id=":10824608058_9_0" index="0" disallow="tram rail_urban rail rail_electric rail_fast ship" speed="13.89" length="14.46" shape="10786.51,5781.09 10791.92,5794.50"/>
    </edge>
    <edge id=":10824608058_10" function="internal">
        <lane id=":10824608058_10_0" index="0" disallow="tram rail_urban rail rail_electric rail_fast ship" speed="7.99" length="14.22" shape="10786.51,5781.09 10787.47,5784.87 10786.98,5788.04 10785.05,5790.61 10781.68,5792.57"/>
    </edge>
    <edge id=":10824608058_11" function="internal">
        <lane id=":10824608058_11_0" index="0" disallow="tram rail_urban rail rail_electric rail_fast ship" speed="3.65" length="4.67" shape="10786.51,5781.09 10786.23,5782.50 10785.64,5783.18 10784.75,5783.11 10783.55,5782.31"/>
    </edge>
    <edge id=":10824608058_12" function="internal">
        <lane id=":10824608058_12_0" index="0" disallow="tram rail_urban rail rail_electric rail_fast ship" speed="6.50" length="9.04" shape="10780.48,5789.60 10782.62,5788.35 10783.85,5786.72 10784.16,5784.71 10783.55,5782.31"/>
    </edge>
    <edge id=":10824608058_13" function="internal">
        <lane id=":10824608058_13_0" index="0" disallow="tram rail_urban rail rail_electric rail_fast ship" speed="13.89" length="14.41" shape="10780.48,5789.60 10793.83,5784.19"/>
    </edge>
    <edge id=":10824608058_14" function="internal">
        <lane id=":10824608058_14_0" index="0" disallow="tram rail_urban rail rail_electric rail_fast ship" speed="7.99" length="4.07" shape="10780.48,5789.60 10784.26,5788.66 10784.43,5788.69"/>
    </edge>
    <edge id=":10824608058_15" function="internal">
        <lane id=":10824608058_15_0" index="0" disallow="tram rail_urban rail rail_electric rail_fast ship" speed="3.65" length="1.44" shape="10780.48,5789.60 10781.89,5789.89"/>
    </edge>
    <edge id=":10824608058_18" function="internal">
        <lane id=":10824608058_18_0" index="0" disallow="tram rail_urban rail rail_electric rail_fast ship" speed="7.99" length="10.15" shape="10784.43,5788.69 10787.43,5789.17 10789.99,5791.11 10791.92,5794.50"/>
    </edge>
    <edge id=":10824608058_19" function="internal">
        <lane id=":10824608058_19_0" index="0" disallow="tram rail_urban rail rail_electric rail_fast ship" speed="3.65" length="3.23" shape="10781.89,5789.89 10782.56,5790.48 10782.49,5791.37 10781.68,5792.57"/>
    </edge>
    <edge id=":10824608061_0" function="internal">
        <lane id=":10824608061_0_0" index="0" disallow="tram rail_urban rail rail_electric rail_fast ship" speed="6.61" length="9.16" shape="10760.51,5678.48 10758.07,5678.85 10756.31,5679.93 10755.23,5681.73 10754.84,5684.23"/>
    </edge>
    <edge id=":10824608061_1" function="internal">
        <lane id=":10824608061_1_0" index="0" disallow="tram rail_urban rail rail_electric rail_fast ship" speed="27.78" length="14.40" shape="10760.51,5678.48 10746.10,5678.56"/>
    </edge>
    <edge id=":10824608061_2" function="internal">
        <lane id=":10824608061_2_0" index="0" disallow="tram rail_urban rail rail_electric rail_fast ship" speed="6.45" length="9.03" shape="10751.64,5684.17 10751.33,5681.70 10750.31,5679.95 10748.57,5678.90 10746.10,5678.56"/>
    </edge>
    <edge id=":10824608061_3" function="internal">
        <lane id=":10824608061_3_0" index="0" disallow="tram rail_urban rail rail_electric rail_fast ship" speed="3.65" length="4.67" shape="10751.64,5684.17 10752.46,5682.99 10753.27,5682.60 10754.06,5683.02 10754.84,5684.23"/>
    </edge>
    <edge id=":10858216978_0" function="internal">
        <lane id=":10858216978_0_0" index="0" disallow="pedestrian bicycle tram rail_urban rail rail_electric rail_fast ship" speed="25.00" length="18.87" shape="10785.85,5311.31 10782.30,5310.01 10778.45,5308.60 10773.75,5307.47 10767.62,5307.00"/>
    </edge>
    <edge id=":10858216978_1" function="internal">
        <lane id=":10858216978_1_0" index="0" disallow="pedestrian bicycle tram rail_urban rail rail_electric rail_fast ship" speed="27.78" length="18.88" shape="10786.50,5307.00 10767.62,5307.00"/>
        <lane id=":10858216978_1_1" index="1" disallow="pedestrian bicycle tram rail_urban rail rail_electric rail_fast ship" speed="27.78" length="18.88" shape="10786.50,5303.80 10767.62,5303.80"/>
    </edge>
    <edge id=":10858216979_0" function="internal">